/*---------------------------------------------------------------------------*\
  =========                 |
  \\      /  F ield         | OpenFOAM: The Open Source CFD Toolbox
   \\    /   O peration     | Website:  https://openfoam.org
    \\  /    A nd           | Version:  7
     \\/     M anipulation  |
\*---------------------------------------------------------------------------*/
Build  : 7-3bcbaf946ae9
Exec   : blockMesh
Date   : Sep 14 2022
Time   : 14:55:59
Host   : "JiayangXu"
PID    : 31516
I/O    : uncollated
Case   : /home/jx278/DeepFlame/deepflame-dev/test/dfSprayFoam/aachenBomb
nProcs : 1
sigFpe : Enabling floating point exception trapping (FOAM_SIGFPE).
fileModificationChecking : Monitoring run-time modified files using timeStampMaster (fileModificationSkew 10)
allowSystemOperations : Allowing user-supplied system call operations

// * * * * * * * * * * * * * * * * * * * * * * * * * * * * * * * * * * * * * //
Create time

Creating block mesh from
    "/home/jx278/DeepFlame/deepflame-dev/test/dfSprayFoam/aachenBomb/system/blockMeshDict"
Creating block edges
No non-planar block faces defined
Creating topology blocks
Creating topology patches

Reading patches section

Creating block mesh topology

Reading physicalType from existing boundary file

Default patch type set to empty

Check topology

	Basic statistics
		Number of internal faces : 0
		Number of boundary faces : 6
		Number of defined boundary faces : 6
		Number of undefined boundary faces : 0
	Checking patch -> block consistency

Creating block offsets
Creating merge list .

Creating polyMesh from blockMesh
Creating patches
Creating cells
Creating points with scale 0.001
    Block 0 cell size :
        i : 0.000487805
        j : 0.000487805
        k : 0.001

Writing polyMesh
----------------
Mesh Information
----------------
  boundingBox: (-0.01 0 -0.01) (0.01 0.1 0.01)
  nPoints: 178164
  nCells: 168100
  nFaces: 514181
  nInternalFaces: 494419
----------------
Patches
----------------
  patch 0 (start: 494419 size: 19762) name: walls

End

/*---------------------------------------------------------------------------*\
  =========                 |
  \\      /  F ield         | OpenFOAM: The Open Source CFD Toolbox
   \\    /   O peration     | Website:  https://openfoam.org
    \\  /    A nd           | Version:  7
     \\/     M anipulation  |
\*---------------------------------------------------------------------------*/
Build  : 7-3bcbaf946ae9
Exec   : decomposePar
Date   : Sep 14 2022
Time   : 14:56:00
Host   : "JiayangXu"
PID    : 31539
I/O    : uncollated
Case   : /home/jx278/DeepFlame/deepflame-dev/test/dfSprayFoam/aachenBomb
nProcs : 1
sigFpe : Enabling floating point exception trapping (FOAM_SIGFPE).
fileModificationChecking : Monitoring run-time modified files using timeStampMaster (fileModificationSkew 10)
allowSystemOperations : Allowing user-supplied system call operations

// * * * * * * * * * * * * * * * * * * * * * * * * * * * * * * * * * * * * * //
Create time



Decomposing mesh region0

Create mesh

Calculating distribution of cells
 Foam::decompositionMethod::New 
{
    numberOfSubdomains 2;
    method          scotch;
}

Selecting decompositionMethod scotch

Finished decomposition in 0.12 s

Calculating original mesh data

Distributing cells to processors

Distributing faces to processors

Distributing points to processors

Constructing processor meshes

Processor 0
    Number of cells = 84142
    Number of faces shared with processor 1 = 1865
    Number of processor patches = 1
    Number of processor faces = 1865
    Number of boundary faces = 9909

Processor 1
    Number of cells = 83958
    Number of faces shared with processor 0 = 1865
    Number of processor patches = 1
    Number of processor faces = 1865
    Number of boundary faces = 9853

Number of processor faces = 1865
Max number of cells = 84142 (0.109459% above average 84050)
Max number of processor patches = 1 (0% above average 1)
Max number of faces between processors = 1865 (0% above average 1865)

Time = 0

Processor 0: field transfer
Processor 1: field transfer

End

/*---------------------------------------------------------------------------*\
  =========                 |
  \\      /  F ield         | OpenFOAM: The Open Source CFD Toolbox
   \\    /   O peration     | Website:  https://openfoam.org
    \\  /    A nd           | Version:  7
     \\/     M anipulation  |
\*---------------------------------------------------------------------------*/
Build  : 7-3bcbaf946ae9
Exec   : dfSprayFoam -parallel
Date   : Sep 14 2022
Time   : 14:56:02
Host   : "JiayangXu"
PID    : 31550
I/O    : uncollated
Case   : /home/jx278/DeepFlame/deepflame-dev/test/dfSprayFoam/aachenBomb
nProcs : 2
Slaves : 1("JiayangXu.31551")
Pstream initialized with:
    floatTransfer      : 0
    nProcsSimpleSum    : 0
    commsType          : nonBlocking
    polling iterations : 0
sigFpe : Enabling floating point exception trapping (FOAM_SIGFPE).
fileModificationChecking : Monitoring run-time modified files using timeStampMaster (fileModificationSkew 10)
allowSystemOperations : Allowing user-supplied system call operations

// * * * * * * * * * * * * * * * * * * * * * * * * * * * * * * * * * * * * * //
Create time

Create mesh for time = 0


PIMPLE: No convergence criteria found


PIMPLE: Operating solver in transient mode with 1 outer corrector
PIMPLE: Operating solver in PISO mode



Reading g
Reading thermophysical properties

Creating component thermo properties:
    multi-component carrier - 5 species
    liquids - 1 components
    solids - 0 components
--- I am here in Cantera-construct ---
relTol_ === 1e-06
absTol_ === 1e-10
At initial time, min/max(T) = 800, 800

Reading field U

Reading/calculating face flux field phi

Creating turbulence model

Selecting turbulence model type RAS
Selecting RAS turbulence model kEpsilon
RAS
{
    RASModel        kEpsilon;
    turbulence      on;
    printCoeffs     on;
    Cmu             0.09;
    C1              1.44;
    C2              1.92;
    C3              0;
    sigmak          1;
    sigmaEps        1.3;
}

Creating field dpdt

Creating field kinetic energy K

No MRF models present


Constructing reacting cloud
Constructing particle forces
    Selecting particle force sphereDrag
Constructing cloud functions
    none
Constructing particle injection models
Creating injector: model1
Selecting injection model coneInjection
    Constructing 3-D injection
Selecting distribution model RosinRammler
Selecting dispersion model none
Selecting patch interaction model standardWallInteraction
Selecting stochastic collision model none
Selecting surface film model none
Selecting U integration scheme Euler
Selecting heat transfer model RanzMarshall
Selecting T integration scheme analytical
Selecting composition model singlePhaseMixture
Selecting phase change model liquidEvaporationBoil
Participating liquid species:
    C7H16
Selecting AtomizationModel none
Selecting BreakupModel ReitzDiwakar
Average parcel mass: 2.4e-10
Courant Number mean: 0 max: 0

Starting time loop

Courant Number mean: 0 max: 0
deltaT = 2.99401e-06
Time = 2.99401e-06


Solving 3-D cloud sprayCloud

Cloud: sprayCloud injector: model1
    Added 59 new parcels

Cloud: sprayCloud
    Current number of parcels       = 59
    Current mass in system          = 7.07035e-10
    Linear momentum                 = (4.19617e-11 -9.59542e-09 1.57751e-11)
   |Linear momentum|                = 9.59552e-09
    Linear kinetic energy           = 7.50298e-08
    model1:
        number of parcels added     = 59
        mass introduced             = 7.07044e-10
    Parcel fate (number, mass)
      - escape                      = 0, 0
      - stick                       = 0, 0
    Temperature min/max             = 320.394, 322.968
    Mass transfer phase change      = 8.52294e-15
    D10, D32, Dmax (mu)             = 74.7273, 97.1387, 146.367
    Liquid penetration 95% mass (m) = 6.54236e-05

diagonal:  Solving for rho, Initial residual = 0, Final residual = 0, No Iterations 0
smoothSolver:  Solving for Ux, Initial residual = 1, Final residual = 4.71453e-07, No Iterations 2
smoothSolver:  Solving for Uy, Initial residual = 1, Final residual = 1.2369e-08, No Iterations 3
smoothSolver:  Solving for Uz, Initial residual = 1, Final residual = 4.7212e-07, No Iterations 2
=== begin DLB-solve === 
DILUPBiCGStab:  Solving for C7H16, Initial residual = 1, Final residual = 1.4479e-07, No Iterations 1
DILUPBiCGStab:  Solving for O2, Initial residual = 0.79946, Final residual = 1.15761e-07, No Iterations 1
DILUPBiCGStab:  Solving for CO2, Initial residual = 0, Final residual = 0, No Iterations 0
DILUPBiCGStab:  Solving for H2O, Initial residual = 0, Final residual = 0, No Iterations 0
DILUPBiCGStab:  Solving for ha, Initial residual = 0.998006, Final residual = 1.44501e-07, No Iterations 1
T gas min/max   799.792, 800
GAMG:  Solving for p, Initial residual = 0.999999, Final residual = 0.035668, No Iterations 2
diagonal:  Solving for rho, Initial residual = 0, Final residual = 0, No Iterations 0
time step continuity errors : sum local = 1.71126e-09, global = -1.63478e-09, cumulative = -1.63478e-09
rho max/min : 21.6958 21.6901
GAMG:  Solving for p, Initial residual = 0.0271646, Final residual = 8.59065e-07, No Iterations 10
diagonal:  Solving for rho, Initial residual = 0, Final residual = 0, No Iterations 0
time step continuity errors : sum local = 1.63727e-09, global = -1.63726e-09, cumulative = -3.27204e-09
rho max/min : 21.6958 21.6901
smoothSolver:  Solving for epsilon, Initial residual = 0.00246221, Final residual = 8.75342e-07, No Iterations 1
smoothSolver:  Solving for k, Initial residual = 1, Final residual = 1.32765e-08, No Iterations 3
ExecutionTime = 1.58 s  ClockTime = 2 s

Courant Number mean: 8.63538e-08 max: 2.28404e-05
deltaT = 3.58635e-06
Time = 6.58036e-06


Solving 3-D cloud sprayCloud

Cloud: sprayCloud injector: model1
    Added 72 new parcels

Cloud: sprayCloud
    Current number of parcels       = 131
    Current mass in system          = 2.72715e-09
    Linear momentum                 = (-8.401e-10 -7.39033e-08 5.49023e-10)
   |Linear momentum|                = 7.39101e-08
    Linear kinetic energy           = 1.15138e-06
    model1:
        number of parcels added     = 131
        mass introduced             = 2.72723e-09
    Parcel fate (number, mass)
      - escape                      = 0, 0
      - stick                       = 0, 0
    Temperature min/max             = 320.671, 340.856
    Mass transfer phase change      = 7.94024e-14
    D10, D32, Dmax (mu)             = 29.8013, 87.5159, 146.207
    Liquid penetration 95% mass (m) = 0.000160085

diagonal:  Solving for rho, Initial residual = 0, Final residual = 0, No Iterations 0
smoothSolver:  Solving for Ux, Initial residual = 0.472599, Final residual = 1.3509e-07, No Iterations 2
smoothSolver:  Solving for Uy, Initial residual = 0.969595, Final residual = 1.64131e-08, No Iterations 3
smoothSolver:  Solving for Uz, Initial residual = 0.485204, Final residual = 1.52109e-07, No Iterations 2
=== begin DLB-solve === 
DILUPBiCGStab:  Solving for C7H16, Initial residual = 0.675234, Final residual = 1.36842e-08, No Iterations 1
DILUPBiCGStab:  Solving for O2, Initial residual = 0.689266, Final residual = 1.39695e-08, No Iterations 1
DILUPBiCGStab:  Solving for CO2, Initial residual = 0, Final residual = 0, No Iterations 0
DILUPBiCGStab:  Solving for H2O, Initial residual = 0, Final residual = 0, No Iterations 0
DILUPBiCGStab:  Solving for ha, Initial residual = 0.674225, Final residual = 1.56604e-08, No Iterations 1
T gas min/max   798.114, 800
GAMG:  Solving for p, Initial residual = 0.727204, Final residual = 0.0301659, No Iterations 2
diagonal:  Solving for rho, Initial residual = 0, Final residual = 0, No Iterations 0
time step continuity errors : sum local = 1.37222e-08, global = -1.26871e-08, cumulative = -1.59591e-08
rho max/min : 21.7412 21.69
GAMG:  Solving for p, Initial residual = 0.0221976, Final residual = 8.82295e-07, No Iterations 8
diagonal:  Solving for rho, Initial residual = 0, Final residual = 0, No Iterations 0
time step continuity errors : sum local = 1.3241e-08, global = -1.26861e-08, cumulative = -2.86452e-08
rho max/min : 21.7412 21.69
smoothSolver:  Solving for epsilon, Initial residual = 0.00136692, Final residual = 5.69936e-07, No Iterations 1
smoothSolver:  Solving for k, Initial residual = 0.449805, Final residual = 3.59359e-07, No Iterations 2
ExecutionTime = 1.94 s  ClockTime = 2 s

Courant Number mean: 2.54823e-07 max: 0.000659827
deltaT = 4.30052e-06
Time = 1.08809e-05


Solving 3-D cloud sprayCloud

Cloud: sprayCloud injector: model1
    Added 86 new parcels

Cloud: sprayCloud
    Current number of parcels       = 217
    Current mass in system          = 6.83557e-09
    Linear momentum                 = (1.80087e-09 -2.88858e-07 1.10899e-10)
   |Linear momentum|                = 2.88863e-07
    Linear kinetic energy           = 6.99802e-06
    model1:
        number of parcels added     = 217
        mass introduced             = 6.83594e-09
    Parcel fate (number, mass)
      - escape                      = 0, 0
      - stick                       = 0, 0
    Temperature min/max             = 321.007, 365.823
    Mass transfer phase change      = 3.67564e-13
    D10, D32, Dmax (mu)             = 25.8575, 85.1412, 145.087
    Liquid penetration 95% mass (m) = 0.000358341

diagonal:  Solving for rho, Initial residual = 0, Final residual = 0, No Iterations 0
smoothSolver:  Solving for Ux, Initial residual = 0.373132, Final residual = 3.10348e-07, No Iterations 2
smoothSolver:  Solving for Uy, Initial residual = 0.855372, Final residual = 1.93798e-08, No Iterations 3
smoothSolver:  Solving for Uz, Initial residual = 0.371203, Final residual = 3.03617e-07, No Iterations 2
=== begin DLB-solve === 
DILUPBiCGStab:  Solving for C7H16, Initial residual = 0.475389, Final residual = 2.53906e-08, No Iterations 1
DILUPBiCGStab:  Solving for O2, Initial residual = 0.477071, Final residual = 2.54807e-08, No Iterations 1
DILUPBiCGStab:  Solving for CO2, Initial residual = 0, Final residual = 0, No Iterations 0
DILUPBiCGStab:  Solving for H2O, Initial residual = 0, Final residual = 0, No Iterations 0
DILUPBiCGStab:  Solving for ha, Initial residual = 0.451171, Final residual = 2.6816e-08, No Iterations 1
T gas min/max   792.226, 800.001
GAMG:  Solving for p, Initial residual = 0.676766, Final residual = 0.0296923, No Iterations 2
diagonal:  Solving for rho, Initial residual = 0, Final residual = 0, No Iterations 0
time step continuity errors : sum local = 4.99676e-08, global = -4.51581e-08, cumulative = -7.38034e-08
rho max/min : 21.9015 21.6896
GAMG:  Solving for p, Initial residual = 0.0246098, Final residual = 6.41424e-07, No Iterations 8
diagonal:  Solving for rho, Initial residual = 0, Final residual = 0, No Iterations 0
time step continuity errors : sum local = 4.69371e-08, global = -4.51504e-08, cumulative = -1.18954e-07
rho max/min : 21.9015 21.6896
smoothSolver:  Solving for epsilon, Initial residual = 0.00152227, Final residual = 8.18203e-07, No Iterations 1
smoothSolver:  Solving for k, Initial residual = 0.265775, Final residual = 3.58755e-07, No Iterations 2
ExecutionTime = 2.31 s  ClockTime = 3 s

Courant Number mean: 7.65482e-07 max: 0.00603938
deltaT = 5.15166e-06
Time = 1.60325e-05


Solving 3-D cloud sprayCloud

Cloud: sprayCloud injector: model1
    Added 103 new parcels

Cloud: sprayCloud
    Current number of parcels       = 320
    Current mass in system          = 1.41774e-08
    Linear momentum                 = (4.12183e-09 -8.36304e-07 3.79757e-09)
   |Linear momentum|                = 8.36322e-07
    Linear kinetic energy           = 2.83683e-05
    model1:
        number of parcels added     = 320
        mass introduced             = 1.41787e-08
    Parcel fate (number, mass)
      - escape                      = 0, 0
      - stick                       = 0, 0
    Temperature min/max             = 321.202, 393.295
    Mass transfer phase change      = 1.31997e-12
    D10, D32, Dmax (mu)             = 26.8925, 83.3603, 144.112
    Liquid penetration 95% mass (m) = 0.000646427

diagonal:  Solving for rho, Initial residual = 0, Final residual = 0, No Iterations 0
smoothSolver:  Solving for Ux, Initial residual = 0.347866, Final residual = 5.91118e-07, No Iterations 2
smoothSolver:  Solving for Uy, Initial residual = 0.657973, Final residual = 1.50589e-08, No Iterations 3
smoothSolver:  Solving for Uz, Initial residual = 0.35081, Final residual = 5.93602e-07, No Iterations 2
=== begin DLB-solve === 
DILUPBiCGStab:  Solving for C7H16, Initial residual = 0.391719, Final residual = 1.54359e-07, No Iterations 1
DILUPBiCGStab:  Solving for O2, Initial residual = 0.392063, Final residual = 1.54495e-07, No Iterations 1
DILUPBiCGStab:  Solving for CO2, Initial residual = 0, Final residual = 0, No Iterations 0
DILUPBiCGStab:  Solving for H2O, Initial residual = 0, Final residual = 0, No Iterations 0
DILUPBiCGStab:  Solving for ha, Initial residual = 0.348883, Final residual = 1.47532e-07, No Iterations 1
T gas min/max   778.576, 800.002
GAMG:  Solving for p, Initial residual = 0.586233, Final residual = 0.0281322, No Iterations 2
diagonal:  Solving for rho, Initial residual = 0, Final residual = 0, No Iterations 0
time step continuity errors : sum local = 1.45102e-07, global = -1.24122e-07, cumulative = -2.43076e-07
rho max/min : 22.2803 21.6881
GAMG:  Solving for p, Initial residual = 0.0257795, Final residual = 8.14111e-07, No Iterations 8
diagonal:  Solving for rho, Initial residual = 0, Final residual = 0, No Iterations 0
time step continuity errors : sum local = 1.28863e-07, global = -1.24044e-07, cumulative = -3.67121e-07
rho max/min : 22.2803 21.6881
smoothSolver:  Solving for epsilon, Initial residual = 0.001691, Final residual = 2.66157e-09, No Iterations 2
smoothSolver:  Solving for k, Initial residual = 0.198845, Final residual = 4.644e-07, No Iterations 2
ExecutionTime = 2.7 s  ClockTime = 3 s

Courant Number mean: 2.87761e-06 max: 0.0349811
deltaT = 6.1498e-06
Time = 2.21823e-05


Solving 3-D cloud sprayCloud

Cloud: sprayCloud injector: model1
    Added 123 new parcels

Cloud: sprayCloud
    Current number of parcels       = 443
    Current mass in system          = 2.63945e-08
    Linear momentum                 = (9.59269e-09 -2.0103e-06 6.37751e-09)
   |Linear momentum|                = 2.01034e-06
    Linear kinetic energy           = 8.8475e-05
    model1:
        number of parcels added     = 443
        mass introduced             = 2.63994e-08
    Parcel fate (number, mass)
      - escape                      = 0, 0
      - stick                       = 0, 0
    Temperature min/max             = 321.739, 434.996
    Mass transfer phase change      = 4.93271e-12
    D10, D32, Dmax (mu)             = 22.8988, 71.1151, 144.135
    Liquid penetration 95% mass (m) = 0.00106015

diagonal:  Solving for rho, Initial residual = 0, Final residual = 0, No Iterations 0
smoothSolver:  Solving for Ux, Initial residual = 0.327843, Final residual = 3.32557e-09, No Iterations 3
smoothSolver:  Solving for Uy, Initial residual = 0.537941, Final residual = 2.05949e-08, No Iterations 3
smoothSolver:  Solving for Uz, Initial residual = 0.327529, Final residual = 3.31233e-09, No Iterations 3
=== begin DLB-solve === 
DILUPBiCGStab:  Solving for C7H16, Initial residual = 0.404549, Final residual = 1.4054e-09, No Iterations 2
DILUPBiCGStab:  Solving for O2, Initial residual = 0.404646, Final residual = 1.40574e-09, No Iterations 2
DILUPBiCGStab:  Solving for CO2, Initial residual = 0, Final residual = 0, No Iterations 0
DILUPBiCGStab:  Solving for H2O, Initial residual = 0, Final residual = 0, No Iterations 0
DILUPBiCGStab:  Solving for ha, Initial residual = 0.342426, Final residual = 1.14583e-09, No Iterations 2
T gas min/max   763.894, 800.006
GAMG:  Solving for p, Initial residual = 0.526557, Final residual = 0.0347815, No Iterations 2
diagonal:  Solving for rho, Initial residual = 0, Final residual = 0, No Iterations 0
time step continuity errors : sum local = 4.87677e-07, global = -3.76979e-07, cumulative = -7.441e-07
rho max/min : 22.6852 21.6824
GAMG:  Solving for p, Initial residual = 0.0345453, Final residual = 6.04436e-07, No Iterations 9
diagonal:  Solving for rho, Initial residual = 0, Final residual = 0, No Iterations 0
time step continuity errors : sum local = 3.90514e-07, global = -3.76773e-07, cumulative = -1.12087e-06
rho max/min : 22.6853 21.6823
smoothSolver:  Solving for epsilon, Initial residual = 0.00189255, Final residual = 4.65086e-09, No Iterations 2
smoothSolver:  Solving for k, Initial residual = 0.172354, Final residual = 8.46623e-07, No Iterations 2
ExecutionTime = 3.07 s  ClockTime = 4 s

Courant Number mean: 1.36126e-05 max: 0.158733
deltaT = 3.86489e-06
Time = 2.60472e-05


Solving 3-D cloud sprayCloud

Cloud: sprayCloud injector: model1
    Added 77 new parcels

Cloud: sprayCloud
    Current number of parcels       = 520
    Current mass in system          = 3.59936e-08
    Linear momentum                 = (3.21951e-08 -3.15519e-06 3.2943e-08)
   |Linear momentum|                = 3.15552e-06
    Linear kinetic energy           = 0.000162611
    model1:
        number of parcels added     = 520
        mass introduced             = 3.60039e-08
    Parcel fate (number, mass)
      - escape                      = 0, 0
      - stick                       = 0, 0
    Temperature min/max             = 321.129, 455.306
    Mass transfer phase change      = 1.02523e-11
    D10, D32, Dmax (mu)             = 14.2934, 65.0725, 143.188
    Liquid penetration 95% mass (m) = 0.00138109

diagonal:  Solving for rho, Initial residual = 0, Final residual = 0, No Iterations 0
smoothSolver:  Solving for Ux, Initial residual = 0.199939, Final residual = 2.824e-07, No Iterations 2
smoothSolver:  Solving for Uy, Initial residual = 0.219195, Final residual = 1.65961e-08, No Iterations 3
smoothSolver:  Solving for Uz, Initial residual = 0.203332, Final residual = 4.48297e-07, No Iterations 2
=== begin DLB-solve === 
DILUPBiCGStab:  Solving for C7H16, Initial residual = 0.206529, Final residual = 6.05685e-10, No Iterations 2
DILUPBiCGStab:  Solving for O2, Initial residual = 0.206546, Final residual = 6.05735e-10, No Iterations 2
DILUPBiCGStab:  Solving for CO2, Initial residual = 0, Final residual = 0, No Iterations 0
DILUPBiCGStab:  Solving for H2O, Initial residual = 0, Final residual = 0, No Iterations 0
DILUPBiCGStab:  Solving for ha, Initial residual = 0.146745, Final residual = 8.00885e-07, No Iterations 1
T gas min/max   747.821, 800.021
GAMG:  Solving for p, Initial residual = 0.383342, Final residual = 0.0127998, No Iterations 2
diagonal:  Solving for rho, Initial residual = 0, Final residual = 0, No Iterations 0
time step continuity errors : sum local = 4.21912e-07, global = -3.64281e-07, cumulative = -1.48515e-06
rho max/min : 23.2459 21.6765
GAMG:  Solving for p, Initial residual = 0.0142669, Final residual = 6.77263e-07, No Iterations 7
diagonal:  Solving for rho, Initial residual = 0, Final residual = 0, No Iterations 0
time step continuity errors : sum local = 3.99386e-07, global = -3.64257e-07, cumulative = -1.84941e-06
rho max/min : 23.2456 21.6766
smoothSolver:  Solving for epsilon, Initial residual = 0.00124266, Final residual = 9.18953e-07, No Iterations 1
smoothSolver:  Solving for k, Initial residual = 0.107571, Final residual = 6.99447e-07, No Iterations 2
ExecutionTime = 3.4 s  ClockTime = 4 s

Courant Number mean: 1.5061e-05 max: 0.155354
deltaT = 2.48457e-06
Time = 2.85318e-05


Solving 3-D cloud sprayCloud

Cloud: sprayCloud injector: model1
    Added 50 new parcels

Cloud: sprayCloud
    Current number of parcels       = 570
    Current mass in system          = 4.29457e-08
    Linear momentum                 = (4.66132e-08 -4.08916e-06 4.61043e-08)
   |Linear momentum|                = 4.08968e-06
    Linear kinetic energy           = 0.000231673
    model1:
        number of parcels added     = 570
        mass introduced             = 4.29625e-08
    Parcel fate (number, mass)
      - escape                      = 0, 0
      - stick                       = 0, 0
    Temperature min/max             = 320.839, 462.856
    Mass transfer phase change      = 1.68311e-11
    D10, D32, Dmax (mu)             = 11.6348, 63.5292, 142.781
    Liquid penetration 95% mass (m) = 0.00157557

diagonal:  Solving for rho, Initial residual = 0, Final residual = 0, No Iterations 0
smoothSolver:  Solving for Ux, Initial residual = 0.134336, Final residual = 3.24e-07, No Iterations 2
smoothSolver:  Solving for Uy, Initial residual = 0.122135, Final residual = 4.77078e-08, No Iterations 3
smoothSolver:  Solving for Uz, Initial residual = 0.133971, Final residual = 3.09586e-07, No Iterations 2
=== begin DLB-solve === 
DILUPBiCGStab:  Solving for C7H16, Initial residual = 0.13927, Final residual = 1.33899e-09, No Iterations 2
DILUPBiCGStab:  Solving for O2, Initial residual = 0.139277, Final residual = 1.33905e-09, No Iterations 2
DILUPBiCGStab:  Solving for CO2, Initial residual = 0, Final residual = 0, No Iterations 0
DILUPBiCGStab:  Solving for H2O, Initial residual = 0, Final residual = 0, No Iterations 0
DILUPBiCGStab:  Solving for ha, Initial residual = 0.07689, Final residual = 7.5617e-07, No Iterations 1
T gas min/max   739.831, 800.026
GAMG:  Solving for p, Initial residual = 0.213537, Final residual = 0.00379312, No Iterations 2
diagonal:  Solving for rho, Initial residual = 0, Final residual = 0, No Iterations 0
time step continuity errors : sum local = 3.07573e-07, global = -2.67644e-07, cumulative = -2.11706e-06
rho max/min : 23.5151 21.6746
GAMG:  Solving for p, Initial residual = 0.00528119, Final residual = 9.00789e-07, No Iterations 5
diagonal:  Solving for rho, Initial residual = 0, Final residual = 0, No Iterations 0
time step continuity errors : sum local = 3.0666e-07, global = -2.67713e-07, cumulative = -2.38477e-06
rho max/min : 23.515 21.6746
smoothSolver:  Solving for epsilon, Initial residual = 0.00124038, Final residual = 1.64611e-08, No Iterations 2
smoothSolver:  Solving for k, Initial residual = 0.112999, Final residual = 4.10407e-08, No Iterations 3
ExecutionTime = 3.71 s  ClockTime = 4 s

Courant Number mean: 1.31545e-05 max: 0.117757
deltaT = 2.10731e-06
Time = 3.06391e-05


Solving 3-D cloud sprayCloud

Cloud: sprayCloud injector: model1
    Added 42 new parcels

Cloud: sprayCloud
    Current number of parcels       = 612
    Current mass in system          = 4.93169e-08
    Linear momentum                 = (5.10005e-08 -4.98467e-06 6.33459e-08)
   |Linear momentum|                = 4.98534e-06
    Linear kinetic energy           = 0.000302473
    model1:
        number of parcels added     = 612
        mass introduced             = 4.93456e-08
    Parcel fate (number, mass)
      - escape                      = 0, 0
      - stick                       = 0, 0
    Temperature min/max             = 320.7, 467.433
    Mass transfer phase change      = 2.86521e-11
    D10, D32, Dmax (mu)             = 9.79831, 61.7053, 142.578
    Liquid penetration 95% mass (m) = 0.00176946

diagonal:  Solving for rho, Initial residual = 0, Final residual = 0, No Iterations 0
smoothSolver:  Solving for Ux, Initial residual = 0.118047, Final residual = 2.14593e-08, No Iterations 3
smoothSolver:  Solving for Uy, Initial residual = 0.108336, Final residual = 3.4115e-07, No Iterations 3
smoothSolver:  Solving for Uz, Initial residual = 0.11764, Final residual = 2.11615e-08, No Iterations 3
=== begin DLB-solve === 
DILUPBiCGStab:  Solving for C7H16, Initial residual = 0.148548, Final residual = 1.81796e-08, No Iterations 2
DILUPBiCGStab:  Solving for O2, Initial residual = 0.148552, Final residual = 1.81801e-08, No Iterations 2
DILUPBiCGStab:  Solving for CO2, Initial residual = 0, Final residual = 0, No Iterations 0
DILUPBiCGStab:  Solving for H2O, Initial residual = 0, Final residual = 0, No Iterations 0
DILUPBiCGStab:  Solving for ha, Initial residual = 0.0834561, Final residual = 1.65407e-08, No Iterations 2
T gas min/max   743.862, 800.038
GAMG:  Solving for p, Initial residual = 0.215478, Final residual = 0.0186285, No Iterations 1
diagonal:  Solving for rho, Initial residual = 0, Final residual = 0, No Iterations 0
time step continuity errors : sum local = 4.11937e-07, global = -2.76588e-07, cumulative = -2.66136e-06
rho max/min : 23.4087 21.671
GAMG:  Solving for p, Initial residual = 0.0172714, Final residual = 2.71048e-07, No Iterations 6
diagonal:  Solving for rho, Initial residual = 0, Final residual = 0, No Iterations 0
time step continuity errors : sum local = 3.84511e-07, global = -2.76555e-07, cumulative = -2.93791e-06
rho max/min : 23.4087 21.6711
smoothSolver:  Solving for epsilon, Initial residual = 0.00191013, Final residual = 2.52082e-07, No Iterations 2
smoothSolver:  Solving for k, Initial residual = 0.139343, Final residual = 2.10666e-08, No Iterations 4
ExecutionTime = 4.02 s  ClockTime = 4 s

Courant Number mean: 1.40462e-05 max: 0.106787
deltaT = 1.97025e-06
Time = 3.26094e-05


Solving 3-D cloud sprayCloud

Cloud: sprayCloud injector: model1
    Added 40 new parcels

Cloud: sprayCloud
    Current number of parcels       = 652
    Current mass in system          = 5.56621e-08
    Linear momentum                 = (2.91881e-08 -5.91707e-06 7.02401e-08)
   |Linear momentum|                = 5.91755e-06
    Linear kinetic energy           = 0.000380369
    model1:
        number of parcels added     = 652
        mass introduced             = 5.57129e-08
    Parcel fate (number, mass)
      - escape                      = 0, 0
      - stick                       = 0, 0
    Temperature min/max             = 320.664, 499.217
    Mass transfer phase change      = 5.07845e-11
    D10, D32, Dmax (mu)             = 8.67692, 60.046, 142.347
    Liquid penetration 95% mass (m) = 0.00194021

diagonal:  Solving for rho, Initial residual = 0, Final residual = 0, No Iterations 0
smoothSolver:  Solving for Ux, Initial residual = 0.10728, Final residual = 1.6983e-07, No Iterations 3
smoothSolver:  Solving for Uy, Initial residual = 0.107325, Final residual = 4.97279e-08, No Iterations 4
smoothSolver:  Solving for Uz, Initial residual = 0.105885, Final residual = 1.49418e-07, No Iterations 3
=== begin DLB-solve === 
DILUPBiCGStab:  Solving for C7H16, Initial residual = 0.162359, Final residual = 1.17835e-07, No Iterations 2
DILUPBiCGStab:  Solving for O2, Initial residual = 0.162362, Final residual = 1.17837e-07, No Iterations 2
DILUPBiCGStab:  Solving for CO2, Initial residual = 0, Final residual = 0, No Iterations 0
DILUPBiCGStab:  Solving for H2O, Initial residual = 0, Final residual = 0, No Iterations 0
DILUPBiCGStab:  Solving for ha, Initial residual = 0.0962613, Final residual = 7.23229e-08, No Iterations 2
T gas min/max   752.556, 800.052
GAMG:  Solving for p, Initial residual = 0.188839, Final residual = 0.0158452, No Iterations 1
diagonal:  Solving for rho, Initial residual = 0, Final residual = 0, No Iterations 0
time step continuity errors : sum local = 5.24036e-07, global = -3.06979e-07, cumulative = -3.24489e-06
rho max/min : 23.1765 21.6684
GAMG:  Solving for p, Initial residual = 0.014973, Final residual = 9.36537e-07, No Iterations 5
diagonal:  Solving for rho, Initial residual = 0, Final residual = 0, No Iterations 0
time step continuity errors : sum local = 5.06014e-07, global = -3.06636e-07, cumulative = -3.55153e-06
rho max/min : 23.1764 21.6683
smoothSolver:  Solving for epsilon, Initial residual = 0.00267372, Final residual = 3.15746e-08, No Iterations 3
smoothSolver:  Solving for k, Initial residual = 0.142726, Final residual = 2.06835e-07, No Iterations 4
ExecutionTime = 4.36 s  ClockTime = 5 s

Courant Number mean: 1.61925e-05 max: 0.103468
deltaT = 1.90057e-06
Time = 3.45099e-05


Solving 3-D cloud sprayCloud

Cloud: sprayCloud injector: model1
    Added 38 new parcels

Cloud: sprayCloud
    Current number of parcels       = 690
    Current mass in system          = 6.21346e-08
    Linear momentum                 = (3.62956e-08 -6.90246e-06 7.06571e-08)
   |Linear momentum|                = 6.90291e-06
    Linear kinetic energy           = 0.000466786
    model1:
        number of parcels added     = 690
        mass introduced             = 6.22208e-08
    Parcel fate (number, mass)
      - escape                      = 0, 0
      - stick                       = 0, 0
    Temperature min/max             = 320.649, 521.94
    Mass transfer phase change      = 8.61336e-11
    D10, D32, Dmax (mu)             = 8.44684, 58.6424, 142.128
    Liquid penetration 95% mass (m) = 0.00209945

diagonal:  Solving for rho, Initial residual = 0, Final residual = 0, No Iterations 0
smoothSolver:  Solving for Ux, Initial residual = 0.0979489, Final residual = 2.18594e-07, No Iterations 3
smoothSolver:  Solving for Uy, Initial residual = 0.0937781, Final residual = 1.09595e-07, No Iterations 4
smoothSolver:  Solving for Uz, Initial residual = 0.0958885, Final residual = 2.26839e-07, No Iterations 3
=== begin DLB-solve === 
DILUPBiCGStab:  Solving for C7H16, Initial residual = 0.149365, Final residual = 2.38549e-07, No Iterations 2
DILUPBiCGStab:  Solving for O2, Initial residual = 0.149367, Final residual = 2.38551e-07, No Iterations 2
DILUPBiCGStab:  Solving for CO2, Initial residual = 0, Final residual = 0, No Iterations 0
DILUPBiCGStab:  Solving for H2O, Initial residual = 0, Final residual = 0, No Iterations 0
DILUPBiCGStab:  Solving for ha, Initial residual = 0.0812129, Final residual = 1.29983e-07, No Iterations 2
T gas min/max   755.336, 800.075
GAMG:  Solving for p, Initial residual = 0.137566, Final residual = 0.0109454, No Iterations 1
diagonal:  Solving for rho, Initial residual = 0, Final residual = 0, No Iterations 0
time step continuity errors : sum local = 5.46346e-07, global = -3.39493e-07, cumulative = -3.89102e-06
rho max/min : 22.9839 21.6675
GAMG:  Solving for p, Initial residual = 0.0102903, Final residual = 6.17018e-07, No Iterations 5
diagonal:  Solving for rho, Initial residual = 0, Final residual = 0, No Iterations 0
time step continuity errors : sum local = 5.38516e-07, global = -3.38678e-07, cumulative = -4.2297e-06
rho max/min : 22.9838 21.6677
smoothSolver:  Solving for epsilon, Initial residual = 0.00336741, Final residual = 8.17182e-08, No Iterations 3
smoothSolver:  Solving for k, Initial residual = 0.115847, Final residual = 3.67992e-07, No Iterations 4
ExecutionTime = 4.68 s  ClockTime = 5 s

Courant Number mean: 1.91535e-05 max: 0.105821
deltaT = 1.79459e-06
Time = 3.63045e-05


Solving 3-D cloud sprayCloud

Cloud: sprayCloud injector: model1
    Added 36 new parcels

Cloud: sprayCloud
    Current number of parcels       = 726
    Current mass in system          = 6.85683e-08
    Linear momentum                 = (5.74205e-08 -7.91204e-06 5.14637e-08)
   |Linear momentum|                = 7.91242e-06
    Linear kinetic energy           = 0.000558934
    model1:
        number of parcels added     = 726
        mass introduced             = 6.86954e-08
    Parcel fate (number, mass)
      - escape                      = 0, 0
      - stick                       = 0, 0
    Temperature min/max             = 320.644, 531.784
    Mass transfer phase change      = 1.27146e-10
    D10, D32, Dmax (mu)             = 8.70455, 57.3743, 141.916
    Liquid penetration 95% mass (m) = 0.00224711

diagonal:  Solving for rho, Initial residual = 0, Final residual = 0, No Iterations 0
smoothSolver:  Solving for Ux, Initial residual = 0.0886321, Final residual = 1.41578e-07, No Iterations 3
smoothSolver:  Solving for Uy, Initial residual = 0.0802521, Final residual = 1.33668e-07, No Iterations 4
smoothSolver:  Solving for Uz, Initial residual = 0.0881196, Final residual = 1.6583e-07, No Iterations 3
=== begin DLB-solve === 
DILUPBiCGStab:  Solving for C7H16, Initial residual = 0.107641, Final residual = 2.06754e-07, No Iterations 2
DILUPBiCGStab:  Solving for O2, Initial residual = 0.107642, Final residual = 2.06755e-07, No Iterations 2
DILUPBiCGStab:  Solving for CO2, Initial residual = 0, Final residual = 0, No Iterations 0
DILUPBiCGStab:  Solving for H2O, Initial residual = 0, Final residual = 0, No Iterations 0
DILUPBiCGStab:  Solving for ha, Initial residual = 0.0611615, Final residual = 1.16381e-07, No Iterations 2
T gas min/max   755.57, 800.093
GAMG:  Solving for p, Initial residual = 0.113275, Final residual = 0.00782751, No Iterations 1
diagonal:  Solving for rho, Initial residual = 0, Final residual = 0, No Iterations 0
time step continuity errors : sum local = 5.18018e-07, global = -3.65114e-07, cumulative = -4.59481e-06
rho max/min : 22.9115 21.6659
GAMG:  Solving for p, Initial residual = 0.00709969, Final residual = 3.15565e-07, No Iterations 5
diagonal:  Solving for rho, Initial residual = 0, Final residual = 0, No Iterations 0
time step continuity errors : sum local = 5.1735e-07, global = -3.63782e-07, cumulative = -4.95859e-06
rho max/min : 22.9113 21.6658
smoothSolver:  Solving for epsilon, Initial residual = 0.00421172, Final residual = 1.05912e-07, No Iterations 3
smoothSolver:  Solving for k, Initial residual = 0.0902459, Final residual = 2.73096e-07, No Iterations 4
ExecutionTime = 4.99 s  ClockTime = 5 s

Courant Number mean: 2.19963e-05 max: 0.107242
deltaT = 1.67308e-06
Time = 3.79776e-05


Solving 3-D cloud sprayCloud

Cloud: sprayCloud injector: model1
    Added 33 new parcels

Cloud: sprayCloud
    Current number of parcels       = 759
    Current mass in system          = 7.48533e-08
    Linear momentum                 = (4.31465e-08 -8.91972e-06 6.45295e-08)
   |Linear momentum|                = 8.92006e-06
    Linear kinetic energy           = 0.000653692
    model1:
        number of parcels added     = 759
        mass introduced             = 7.50201e-08
    Parcel fate (number, mass)
      - escape                      = 0, 0
      - stick                       = 0, 0
    Temperature min/max             = 320.606, 534.889
    Mass transfer phase change      = 1.66787e-10
    D10, D32, Dmax (mu)             = 8.95804, 55.788, 141.715
    Liquid penetration 95% mass (m) = 0.00237572

diagonal:  Solving for rho, Initial residual = 0, Final residual = 0, No Iterations 0
smoothSolver:  Solving for Ux, Initial residual = 0.0822801, Final residual = 1.1924e-07, No Iterations 3
smoothSolver:  Solving for Uy, Initial residual = 0.0742466, Final residual = 9.99289e-08, No Iterations 4
smoothSolver:  Solving for Uz, Initial residual = 0.0818666, Final residual = 9.1219e-08, No Iterations 3
=== begin DLB-solve === 
DILUPBiCGStab:  Solving for C7H16, Initial residual = 0.0732648, Final residual = 1.46609e-07, No Iterations 2
DILUPBiCGStab:  Solving for O2, Initial residual = 0.0732651, Final residual = 1.46609e-07, No Iterations 2
DILUPBiCGStab:  Solving for CO2, Initial residual = 0, Final residual = 0, No Iterations 0
DILUPBiCGStab:  Solving for H2O, Initial residual = 0, Final residual = 0, No Iterations 0
DILUPBiCGStab:  Solving for ha, Initial residual = 0.0504362, Final residual = 5.89338e-08, No Iterations 2
T gas min/max   755.682, 800.102
GAMG:  Solving for p, Initial residual = 0.0968668, Final residual = 0.0063368, No Iterations 1
diagonal:  Solving for rho, Initial residual = 0, Final residual = 0, No Iterations 0
time step continuity errors : sum local = 5.15631e-07, global = -3.8778e-07, cumulative = -5.34637e-06
rho max/min : 22.8975 21.6636
GAMG:  Solving for p, Initial residual = 0.00575397, Final residual = 1.60959e-07, No Iterations 5
diagonal:  Solving for rho, Initial residual = 0, Final residual = 0, No Iterations 0
time step continuity errors : sum local = 5.17689e-07, global = -3.87097e-07, cumulative = -5.73347e-06
rho max/min : 22.8974 21.6636
smoothSolver:  Solving for epsilon, Initial residual = 0.00533803, Final residual = 1.08532e-07, No Iterations 3
smoothSolver:  Solving for k, Initial residual = 0.076324, Final residual = 1.67177e-07, No Iterations 4
ExecutionTime = 5.3 s  ClockTime = 6 s

Courant Number mean: 2.46487e-05 max: 0.107511
deltaT = 1.55416e-06
Time = 3.95318e-05


Solving 3-D cloud sprayCloud

Cloud: sprayCloud injector: model1
    Added 31 new parcels

Cloud: sprayCloud
    Current number of parcels       = 790
    Current mass in system          = 8.09438e-08
    Linear momentum                 = (3.45021e-08 -9.90845e-06 4.26961e-08)
   |Linear momentum|                = 9.90861e-06
    Linear kinetic energy           = 0.000749835
    model1:
        number of parcels added     = 790
        mass introduced             = 8.11446e-08
    Parcel fate (number, mass)
      - escape                      = 0, 0
      - stick                       = 0, 0
    Temperature min/max             = 320.569, 533.844
    Mass transfer phase change      = 2.00805e-10
    D10, D32, Dmax (mu)             = 9.19124, 54.2549, 141.494
    Liquid penetration 95% mass (m) = 0.00249169

diagonal:  Solving for rho, Initial residual = 0, Final residual = 0, No Iterations 0
smoothSolver:  Solving for Ux, Initial residual = 0.0766006, Final residual = 8.82644e-08, No Iterations 3
smoothSolver:  Solving for Uy, Initial residual = 0.0677211, Final residual = 6.23385e-08, No Iterations 4
smoothSolver:  Solving for Uz, Initial residual = 0.0766561, Final residual = 9.53571e-08, No Iterations 3
=== begin DLB-solve === 
DILUPBiCGStab:  Solving for C7H16, Initial residual = 0.0655092, Final residual = 1.01327e-07, No Iterations 2
DILUPBiCGStab:  Solving for O2, Initial residual = 0.0655094, Final residual = 1.01327e-07, No Iterations 2
DILUPBiCGStab:  Solving for CO2, Initial residual = 0, Final residual = 0, No Iterations 0
DILUPBiCGStab:  Solving for H2O, Initial residual = 0, Final residual = 0, No Iterations 0
DILUPBiCGStab:  Solving for ha, Initial residual = 0.0455224, Final residual = 4.18554e-08, No Iterations 2
T gas min/max   755.589, 800.117
GAMG:  Solving for p, Initial residual = 0.0874521, Final residual = 0.00482861, No Iterations 1
diagonal:  Solving for rho, Initial residual = 0, Final residual = 0, No Iterations 0
time step continuity errors : sum local = 5.30748e-07, global = -4.09821e-07, cumulative = -6.14329e-06
rho max/min : 22.8906 21.6615
GAMG:  Solving for p, Initial residual = 0.00446022, Final residual = 5.801e-07, No Iterations 4
diagonal:  Solving for rho, Initial residual = 0, Final residual = 0, No Iterations 0
time step continuity errors : sum local = 5.3544e-07, global = -4.10054e-07, cumulative = -6.55335e-06
rho max/min : 22.8906 21.6615
smoothSolver:  Solving for epsilon, Initial residual = 0.00673252, Final residual = 1.03387e-07, No Iterations 3
smoothSolver:  Solving for k, Initial residual = 0.067119, Final residual = 9.96953e-08, No Iterations 4
ExecutionTime = 5.62 s  ClockTime = 6 s

Courant Number mean: 2.71554e-05 max: 0.106425
deltaT = 1.45968e-06
Time = 4.09914e-05


Solving 3-D cloud sprayCloud

Cloud: sprayCloud injector: model1
    Added 29 new parcels

Cloud: sprayCloud
    Current number of parcels       = 819
    Current mass in system          = 8.68794e-08
    Linear momentum                 = (-4.05077e-09 -1.08913e-05 2.45355e-08)
   |Linear momentum|                = 1.08913e-05
    Linear kinetic energy           = 0.000848438
    model1:
        number of parcels added     = 819
        mass introduced             = 8.71155e-08
    Parcel fate (number, mass)
      - escape                      = 0, 0
      - stick                       = 0, 0
    Temperature min/max             = 320.614, 535.246
    Mass transfer phase change      = 2.36116e-10
    D10, D32, Dmax (mu)             = 9.24889, 52.7686, 141.303
    Liquid penetration 95% mass (m) = 0.00260209

diagonal:  Solving for rho, Initial residual = 0, Final residual = 0, No Iterations 0
smoothSolver:  Solving for Ux, Initial residual = 0.0723339, Final residual = 9.40983e-08, No Iterations 3
smoothSolver:  Solving for Uy, Initial residual = 0.0617261, Final residual = 4.14082e-08, No Iterations 4
smoothSolver:  Solving for Uz, Initial residual = 0.0718312, Final residual = 8.04892e-08, No Iterations 3
=== begin DLB-solve === 
DILUPBiCGStab:  Solving for C7H16, Initial residual = 0.042589, Final residual = 2.85919e-08, No Iterations 2
DILUPBiCGStab:  Solving for O2, Initial residual = 0.0425891, Final residual = 2.85919e-08, No Iterations 2
DILUPBiCGStab:  Solving for CO2, Initial residual = 0, Final residual = 0, No Iterations 0
DILUPBiCGStab:  Solving for H2O, Initial residual = 0, Final residual = 0, No Iterations 0
DILUPBiCGStab:  Solving for ha, Initial residual = 0.0391582, Final residual = 2.38163e-08, No Iterations 2
T gas min/max   755.741, 800.139
GAMG:  Solving for p, Initial residual = 0.0832741, Final residual = 0.00387778, No Iterations 1
diagonal:  Solving for rho, Initial residual = 0, Final residual = 0, No Iterations 0
time step continuity errors : sum local = 5.58189e-07, global = -4.36058e-07, cumulative = -6.98941e-06
rho max/min : 22.9589 21.6603
GAMG:  Solving for p, Initial residual = 0.00350049, Final residual = 3.42703e-07, No Iterations 4
diagonal:  Solving for rho, Initial residual = 0, Final residual = 0, No Iterations 0
time step continuity errors : sum local = 5.63347e-07, global = -4.36092e-07, cumulative = -7.4255e-06
rho max/min : 22.9587 21.6603
smoothSolver:  Solving for epsilon, Initial residual = 0.00860145, Final residual = 1.07079e-07, No Iterations 3
smoothSolver:  Solving for k, Initial residual = 0.0615727, Final residual = 6.90389e-08, No Iterations 4
ExecutionTime = 5.97 s  ClockTime = 6 s

Courant Number mean: 2.98172e-05 max: 0.106829
deltaT = 1.36611e-06
Time = 4.23575e-05


Solving 3-D cloud sprayCloud

Cloud: sprayCloud injector: model1
    Added 28 new parcels

Cloud: sprayCloud
    Current number of parcels       = 847
    Current mass in system          = 9.26141e-08
    Linear momentum                 = (-2.87163e-08 -1.18544e-05 1.20378e-08)
   |Linear momentum|                = 1.18544e-05
    Linear kinetic energy           = 0.000947361
    model1:
        number of parcels added     = 847
        mass introduced             = 9.28849e-08
    Parcel fate (number, mass)
      - escape                      = 0, 0
      - stick                       = 0, 0
    Temperature min/max             = 320.66, 537.454
    Mass transfer phase change      = 2.70725e-10
    D10, D32, Dmax (mu)             = 9.06121, 51.2938, 141.048
    Liquid penetration 95% mass (m) = 0.0027234

diagonal:  Solving for rho, Initial residual = 0, Final residual = 0, No Iterations 0
smoothSolver:  Solving for Ux, Initial residual = 0.0662001, Final residual = 6.1749e-08, No Iterations 3
smoothSolver:  Solving for Uy, Initial residual = 0.0563899, Final residual = 7.78576e-07, No Iterations 3
smoothSolver:  Solving for Uz, Initial residual = 0.0657565, Final residual = 5.23269e-08, No Iterations 3
=== begin DLB-solve === 
DILUPBiCGStab:  Solving for C7H16, Initial residual = 0.0357125, Final residual = 1.70805e-08, No Iterations 2
DILUPBiCGStab:  Solving for O2, Initial residual = 0.0357126, Final residual = 1.70806e-08, No Iterations 2
DILUPBiCGStab:  Solving for CO2, Initial residual = 0, Final residual = 0, No Iterations 0
DILUPBiCGStab:  Solving for H2O, Initial residual = 0, Final residual = 0, No Iterations 0
DILUPBiCGStab:  Solving for ha, Initial residual = 0.0365262, Final residual = 1.75517e-08, No Iterations 2
T gas min/max   756.279, 800.155
GAMG:  Solving for p, Initial residual = 0.0743344, Final residual = 0.00282617, No Iterations 1
diagonal:  Solving for rho, Initial residual = 0, Final residual = 0, No Iterations 0
time step continuity errors : sum local = 5.96538e-07, global = -4.56376e-07, cumulative = -7.88187e-06
rho max/min : 23.0301 21.6593
GAMG:  Solving for p, Initial residual = 0.00258163, Final residual = 1.83205e-07, No Iterations 4
diagonal:  Solving for rho, Initial residual = 0, Final residual = 0, No Iterations 0
time step continuity errors : sum local = 6.00614e-07, global = -4.56573e-07, cumulative = -8.33845e-06
rho max/min : 23.0301 21.6592
smoothSolver:  Solving for epsilon, Initial residual = 0.0107083, Final residual = 1.09039e-07, No Iterations 3
smoothSolver:  Solving for k, Initial residual = 0.0564717, Final residual = 4.84462e-08, No Iterations 4
ExecutionTime = 6.29 s  ClockTime = 7 s

Courant Number mean: 3.2114e-05 max: 0.105902
deltaT = 1.28889e-06
Time = 4.36464e-05


Solving 3-D cloud sprayCloud

Cloud: sprayCloud injector: model1
    Added 25 new parcels

Cloud: sprayCloud
    Current number of parcels       = 872
    Current mass in system          = 9.81243e-08
    Linear momentum                 = (-6.24084e-08 -1.27542e-05 -1.70621e-08)
   |Linear momentum|                = 1.27544e-05
    Linear kinetic energy           = 0.00103843
    model1:
        number of parcels added     = 872
        mass introduced             = 9.84312e-08
    Parcel fate (number, mass)
      - escape                      = 0, 0
      - stick                       = 0, 0
    Temperature min/max             = 320.455, 538.121
    Mass transfer phase change      = 3.06869e-10
    D10, D32, Dmax (mu)             = 8.61021, 49.5277, 144.479
    Liquid penetration 95% mass (m) = 0.00283571

diagonal:  Solving for rho, Initial residual = 0, Final residual = 0, No Iterations 0
smoothSolver:  Solving for Ux, Initial residual = 0.0606953, Final residual = 3.98184e-08, No Iterations 3
smoothSolver:  Solving for Uy, Initial residual = 0.0532218, Final residual = 6.12263e-07, No Iterations 3
smoothSolver:  Solving for Uz, Initial residual = 0.0601386, Final residual = 3.45369e-08, No Iterations 3
=== begin DLB-solve === 
DILUPBiCGStab:  Solving for C7H16, Initial residual = 0.0407286, Final residual = 2.50076e-08, No Iterations 2
DILUPBiCGStab:  Solving for O2, Initial residual = 0.0407287, Final residual = 2.50076e-08, No Iterations 2
DILUPBiCGStab:  Solving for CO2, Initial residual = 0, Final residual = 0, No Iterations 0
DILUPBiCGStab:  Solving for H2O, Initial residual = 0, Final residual = 0, No Iterations 0
DILUPBiCGStab:  Solving for ha, Initial residual = 0.0343939, Final residual = 1.19315e-08, No Iterations 2
T gas min/max   755.636, 800.158
GAMG:  Solving for p, Initial residual = 0.0672329, Final residual = 0.00224556, No Iterations 1
diagonal:  Solving for rho, Initial residual = 0, Final residual = 0, No Iterations 0
time step continuity errors : sum local = 6.32504e-07, global = -4.92394e-07, cumulative = -8.83084e-06
rho max/min : 23.1066 21.6582
GAMG:  Solving for p, Initial residual = 0.00211502, Final residual = 1.09115e-07, No Iterations 4
diagonal:  Solving for rho, Initial residual = 0, Final residual = 0, No Iterations 0
time step continuity errors : sum local = 6.36866e-07, global = -4.92487e-07, cumulative = -9.32333e-06
rho max/min : 23.1063 21.6581
smoothSolver:  Solving for epsilon, Initial residual = 0.0129922, Final residual = 1.12527e-07, No Iterations 3
smoothSolver:  Solving for k, Initial residual = 0.051985, Final residual = 3.58134e-08, No Iterations 4
ExecutionTime = 6.6 s  ClockTime = 7 s

Courant Number mean: 3.44537e-05 max: 0.105354
deltaT = 1.22296e-06
Time = 4.48694e-05


Solving 3-D cloud sprayCloud

Cloud: sprayCloud injector: model1
    Added 25 new parcels

Cloud: sprayCloud
    Current number of parcels       = 897
    Current mass in system          = 1.03431e-07
    Linear momentum                 = (-3.87837e-08 -1.36131e-05 -3.60724e-08)
   |Linear momentum|                = 1.36132e-05
    Linear kinetic energy           = 0.00112589
    model1:
        number of parcels added     = 897
        mass introduced             = 1.03778e-07
    Parcel fate (number, mass)
      - escape                      = 0, 0
      - stick                       = 0, 0
    Temperature min/max             = 320.476, 532.288
    Mass transfer phase change      = 3.47028e-10
    D10, D32, Dmax (mu)             = 8.23238, 48.1282, 142.137
    Liquid penetration 95% mass (m) = 0.00293482

diagonal:  Solving for rho, Initial residual = 0, Final residual = 0, No Iterations 0
smoothSolver:  Solving for Ux, Initial residual = 0.0561138, Final residual = 9.50714e-07, No Iterations 2
smoothSolver:  Solving for Uy, Initial residual = 0.0490616, Final residual = 4.40039e-07, No Iterations 3
smoothSolver:  Solving for Uz, Initial residual = 0.0560641, Final residual = 3.12413e-08, No Iterations 3
=== begin DLB-solve === 
DILUPBiCGStab:  Solving for C7H16, Initial residual = 0.0428756, Final residual = 2.24471e-08, No Iterations 2
DILUPBiCGStab:  Solving for O2, Initial residual = 0.0428757, Final residual = 2.24471e-08, No Iterations 2
DILUPBiCGStab:  Solving for CO2, Initial residual = 0, Final residual = 0, No Iterations 0
DILUPBiCGStab:  Solving for H2O, Initial residual = 0, Final residual = 0, No Iterations 0
DILUPBiCGStab:  Solving for ha, Initial residual = 0.0325837, Final residual = 1.13819e-08, No Iterations 2
T gas min/max   754.577, 800.171
GAMG:  Solving for p, Initial residual = 0.0610544, Final residual = 0.00167418, No Iterations 1
diagonal:  Solving for rho, Initial residual = 0, Final residual = 0, No Iterations 0
time step continuity errors : sum local = 6.67393e-07, global = -5.12754e-07, cumulative = -9.83608e-06
rho max/min : 23.1573 21.6573
GAMG:  Solving for p, Initial residual = 0.00154786, Final residual = 5.99004e-07, No Iterations 3
diagonal:  Solving for rho, Initial residual = 0, Final residual = 0, No Iterations 0
time step continuity errors : sum local = 6.71703e-07, global = -5.12935e-07, cumulative = -1.0349e-05
rho max/min : 23.1573 21.6572
smoothSolver:  Solving for epsilon, Initial residual = 0.0151461, Final residual = 1.12858e-07, No Iterations 3
smoothSolver:  Solving for k, Initial residual = 0.0473834, Final residual = 8.59629e-07, No Iterations 3
ExecutionTime = 6.91 s  ClockTime = 7 s

Courant Number mean: 3.67968e-05 max: 0.103615
deltaT = 1.17917e-06
Time = 4.60486e-05


Solving 3-D cloud sprayCloud

Cloud: sprayCloud injector: model1
    Added 23 new parcels

Cloud: sprayCloud
    Current number of parcels       = 919
    Current mass in system          = 1.08617e-07
    Linear momentum                 = (-1.83367e-08 -1.44463e-05 -1.76815e-08)
   |Linear momentum|                = 1.44463e-05
    Linear kinetic energy           = 0.00121118
    model1:
        number of parcels added     = 920
        mass introduced             = 1.0901e-07
    Parcel fate (number, mass)
      - escape                      = 0, 0
      - stick                       = 0, 0
    Temperature min/max             = 320.42, 534.784
    Mass transfer phase change      = 3.93417e-10
    D10, D32, Dmax (mu)             = 10.4881, 46.7754, 143.214
    Liquid penetration 95% mass (m) = 0.00303364

diagonal:  Solving for rho, Initial residual = 0, Final residual = 0, No Iterations 0
smoothSolver:  Solving for Ux, Initial residual = 0.0528303, Final residual = 8.8528e-07, No Iterations 2
smoothSolver:  Solving for Uy, Initial residual = 0.0460073, Final residual = 3.4846e-07, No Iterations 3
smoothSolver:  Solving for Uz, Initial residual = 0.052745, Final residual = 2.29411e-08, No Iterations 3
=== begin DLB-solve === 
DILUPBiCGStab:  Solving for C7H16, Initial residual = 0.0486259, Final residual = 2.17445e-08, No Iterations 2
DILUPBiCGStab:  Solving for O2, Initial residual = 0.048626, Final residual = 2.17446e-08, No Iterations 2
DILUPBiCGStab:  Solving for CO2, Initial residual = 0, Final residual = 0, No Iterations 0
DILUPBiCGStab:  Solving for H2O, Initial residual = 0, Final residual = 0, No Iterations 0
DILUPBiCGStab:  Solving for ha, Initial residual = 0.0321169, Final residual = 1.12068e-08, No Iterations 2
T gas min/max   754.404, 800.194
GAMG:  Solving for p, Initial residual = 0.0584887, Final residual = 0.00150858, No Iterations 1
diagonal:  Solving for rho, Initial residual = 0, Final residual = 0, No Iterations 0
time step continuity errors : sum local = 7.11185e-07, global = -5.36158e-07, cumulative = -1.08852e-05
rho max/min : 23.1793 21.657
GAMG:  Solving for p, Initial residual = 0.00141979, Final residual = 4.03911e-07, No Iterations 3
diagonal:  Solving for rho, Initial residual = 0, Final residual = 0, No Iterations 0
time step continuity errors : sum local = 7.14199e-07, global = -5.36456e-07, cumulative = -1.14216e-05
rho max/min : 23.1795 21.657
smoothSolver:  Solving for epsilon, Initial residual = 0.0174532, Final residual = 1.19821e-07, No Iterations 3
smoothSolver:  Solving for k, Initial residual = 0.0438885, Final residual = 7.30249e-07, No Iterations 3
ExecutionTime = 7.23 s  ClockTime = 8 s

Courant Number mean: 3.9613e-05 max: 0.103398
deltaT = 1.13973e-06
Time = 4.71883e-05


Solving 3-D cloud sprayCloud

Cloud: sprayCloud injector: model1
    Added 23 new parcels

Cloud: sprayCloud
    Current number of parcels       = 942
    Current mass in system          = 1.13693e-07
    Linear momentum                 = (6.77864e-09 -1.52643e-05 -3.1286e-08)
   |Linear momentum|                = 1.52644e-05
    Linear kinetic energy           = 0.00129614
    model1:
        number of parcels added     = 943
        mass introduced             = 1.14139e-07
    Parcel fate (number, mass)
      - escape                      = 0, 0
      - stick                       = 0, 0
    Temperature min/max             = 320.474, 536.919
    Mass transfer phase change      = 4.4602e-10
    D10, D32, Dmax (mu)             = 10.2892, 45.6391, 139.452
    Liquid penetration 95% mass (m) = 0.00313136

diagonal:  Solving for rho, Initial residual = 0, Final residual = 0, No Iterations 0
smoothSolver:  Solving for Ux, Initial residual = 0.0497802, Final residual = 9.82471e-07, No Iterations 2
smoothSolver:  Solving for Uy, Initial residual = 0.0430736, Final residual = 2.65178e-07, No Iterations 3
smoothSolver:  Solving for Uz, Initial residual = 0.0493217, Final residual = 9.37426e-07, No Iterations 2
=== begin DLB-solve === 
DILUPBiCGStab:  Solving for C7H16, Initial residual = 0.0462989, Final residual = 2.07279e-08, No Iterations 2
DILUPBiCGStab:  Solving for O2, Initial residual = 0.046299, Final residual = 2.0728e-08, No Iterations 2
DILUPBiCGStab:  Solving for CO2, Initial residual = 0, Final residual = 0, No Iterations 0
DILUPBiCGStab:  Solving for H2O, Initial residual = 0, Final residual = 0, No Iterations 0
DILUPBiCGStab:  Solving for ha, Initial residual = 0.0305886, Final residual = 9.18325e-09, No Iterations 2
T gas min/max   754.08, 800.213
GAMG:  Solving for p, Initial residual = 0.0561435, Final residual = 0.00130955, No Iterations 1
diagonal:  Solving for rho, Initial residual = 0, Final residual = 0, No Iterations 0
time step continuity errors : sum local = 7.46829e-07, global = -5.48818e-07, cumulative = -1.19704e-05
rho max/min : 23.2024 21.6567
GAMG:  Solving for p, Initial residual = 0.00132687, Final residual = 2.78022e-07, No Iterations 3
diagonal:  Solving for rho, Initial residual = 0, Final residual = 0, No Iterations 0
time step continuity errors : sum local = 7.49646e-07, global = -5.49323e-07, cumulative = -1.25198e-05
rho max/min : 23.2028 21.6567
smoothSolver:  Solving for epsilon, Initial residual = 0.019609, Final residual = 1.2251e-07, No Iterations 3
smoothSolver:  Solving for k, Initial residual = 0.0406564, Final residual = 6.09494e-07, No Iterations 3
ExecutionTime = 7.54 s  ClockTime = 8 s

Courant Number mean: 4.24116e-05 max: 0.102705
deltaT = 1.10921e-06
Time = 4.82975e-05


Solving 3-D cloud sprayCloud

Cloud: sprayCloud injector: model1
    Added 22 new parcels

Cloud: sprayCloud
    Current number of parcels       = 964
    Current mass in system          = 1.18696e-07
    Linear momentum                 = (-1.66082e-09 -1.60597e-05 -2.8817e-08)
   |Linear momentum|                = 1.60597e-05
    Linear kinetic energy           = 0.00137779
    model1:
        number of parcels added     = 965
        mass introduced             = 1.192e-07
    Parcel fate (number, mass)
      - escape                      = 0, 0
      - stick                       = 0, 0
    Temperature min/max             = 320.467, 538.379
    Mass transfer phase change      = 5.03908e-10
    D10, D32, Dmax (mu)             = 10.0602, 44.3885, 138.551
    Liquid penetration 95% mass (m) = 0.00323016

diagonal:  Solving for rho, Initial residual = 0, Final residual = 0, No Iterations 0
smoothSolver:  Solving for Ux, Initial residual = 0.0468236, Final residual = 8.64395e-07, No Iterations 2
smoothSolver:  Solving for Uy, Initial residual = 0.041244, Final residual = 2.12519e-07, No Iterations 3
smoothSolver:  Solving for Uz, Initial residual = 0.0465407, Final residual = 8.4368e-07, No Iterations 2
=== begin DLB-solve === 
DILUPBiCGStab:  Solving for C7H16, Initial residual = 0.040074, Final residual = 1.87362e-08, No Iterations 2
DILUPBiCGStab:  Solving for O2, Initial residual = 0.040074, Final residual = 1.87362e-08, No Iterations 2
DILUPBiCGStab:  Solving for CO2, Initial residual = 0, Final residual = 0, No Iterations 0
DILUPBiCGStab:  Solving for H2O, Initial residual = 0, Final residual = 0, No Iterations 0
DILUPBiCGStab:  Solving for ha, Initial residual = 0.0289602, Final residual = 7.71619e-09, No Iterations 2
T gas min/max   753.923, 800.229
GAMG:  Solving for p, Initial residual = 0.054331, Final residual = 0.00108593, No Iterations 1
diagonal:  Solving for rho, Initial residual = 0, Final residual = 0, No Iterations 0
time step continuity errors : sum local = 7.76265e-07, global = -5.76767e-07, cumulative = -1.30965e-05
rho max/min : 23.2141 21.6571
GAMG:  Solving for p, Initial residual = 0.00122003, Final residual = 1.67686e-07, No Iterations 3
diagonal:  Solving for rho, Initial residual = 0, Final residual = 0, No Iterations 0
time step continuity errors : sum local = 7.78441e-07, global = -5.77367e-07, cumulative = -1.36739e-05
rho max/min : 23.2147 21.6571
smoothSolver:  Solving for epsilon, Initial residual = 0.0212678, Final residual = 1.21108e-07, No Iterations 3
smoothSolver:  Solving for k, Initial residual = 0.0373478, Final residual = 4.99433e-07, No Iterations 3
ExecutionTime = 7.85 s  ClockTime = 8 s

Courant Number mean: 4.5381e-05 max: 0.102263
deltaT = 1.08394e-06
Time = 4.93814e-05


Solving 3-D cloud sprayCloud

Cloud: sprayCloud injector: model1
    Added 22 new parcels

Cloud: sprayCloud
    Current number of parcels       = 986
    Current mass in system          = 1.23645e-07
    Linear momentum                 = (-2.97553e-08 -1.68381e-05 2.99543e-08)
   |Linear momentum|                = 1.68382e-05
    Linear kinetic energy           = 0.00145817
    model1:
        number of parcels added     = 987
        mass introduced             = 1.24209e-07
    Parcel fate (number, mass)
      - escape                      = 0, 0
      - stick                       = 0, 0
    Temperature min/max             = 320.474, 539.168
    Mass transfer phase change      = 5.6492e-10
    D10, D32, Dmax (mu)             = 9.7257, 43.2547, 137.223
    Liquid penetration 95% mass (m) = 0.00331019

diagonal:  Solving for rho, Initial residual = 0, Final residual = 0, No Iterations 0
smoothSolver:  Solving for Ux, Initial residual = 0.0444027, Final residual = 8.39368e-07, No Iterations 2
smoothSolver:  Solving for Uy, Initial residual = 0.0394958, Final residual = 1.79319e-07, No Iterations 3
smoothSolver:  Solving for Uz, Initial residual = 0.0443381, Final residual = 6.66737e-07, No Iterations 2
=== begin DLB-solve === 
DILUPBiCGStab:  Solving for C7H16, Initial residual = 0.0345715, Final residual = 1.58523e-08, No Iterations 2
DILUPBiCGStab:  Solving for O2, Initial residual = 0.0345716, Final residual = 1.58523e-08, No Iterations 2
DILUPBiCGStab:  Solving for CO2, Initial residual = 0, Final residual = 0, No Iterations 0
DILUPBiCGStab:  Solving for H2O, Initial residual = 0, Final residual = 0, No Iterations 0
DILUPBiCGStab:  Solving for ha, Initial residual = 0.0276723, Final residual = 9.09224e-07, No Iterations 1
T gas min/max   753.499, 800.246
GAMG:  Solving for p, Initial residual = 0.0514648, Final residual = 0.000925435, No Iterations 1
diagonal:  Solving for rho, Initial residual = 0, Final residual = 0, No Iterations 0
time step continuity errors : sum local = 8.20175e-07, global = -6.07585e-07, cumulative = -1.42815e-05
rho max/min : 23.2275 21.6577
GAMG:  Solving for p, Initial residual = 0.00103537, Final residual = 1.20612e-07, No Iterations 3
diagonal:  Solving for rho, Initial residual = 0, Final residual = 0, No Iterations 0
time step continuity errors : sum local = 8.22237e-07, global = -6.08193e-07, cumulative = -1.48897e-05
rho max/min : 23.2282 21.6576
smoothSolver:  Solving for epsilon, Initial residual = 0.0226913, Final residual = 1.17116e-07, No Iterations 3
smoothSolver:  Solving for k, Initial residual = 0.0345361, Final residual = 4.10475e-07, No Iterations 3
ExecutionTime = 8.2 s  ClockTime = 9 s

Courant Number mean: 4.8425e-05 max: 0.102202
deltaT = 1.05978e-06
Time = 5.04412e-05


Solving 3-D cloud sprayCloud

Cloud: sprayCloud injector: model1
    Added 21 new parcels

Cloud: sprayCloud
    Current number of parcels       = 1007
    Current mass in system          = 1.28542e-07
    Linear momentum                 = (-5.16299e-08 -1.76062e-05 2.46205e-08)
   |Linear momentum|                = 1.76063e-05
    Linear kinetic energy           = 0.0015382
    model1:
        number of parcels added     = 1008
        mass introduced             = 1.2917e-07
    Parcel fate (number, mass)
      - escape                      = 0, 0
      - stick                       = 0, 0
    Temperature min/max             = 320.393, 539.842
    Mass transfer phase change      = 6.27592e-10
    D10, D32, Dmax (mu)             = 9.29566, 42.1213, 144.143
    Liquid penetration 95% mass (m) = 0.00340603

diagonal:  Solving for rho, Initial residual = 0, Final residual = 0, No Iterations 0
smoothSolver:  Solving for Ux, Initial residual = 0.0423303, Final residual = 8.04668e-07, No Iterations 2
smoothSolver:  Solving for Uy, Initial residual = 0.0372279, Final residual = 1.49697e-07, No Iterations 3
smoothSolver:  Solving for Uz, Initial residual = 0.0422571, Final residual = 6.59029e-07, No Iterations 2
=== begin DLB-solve === 
DILUPBiCGStab:  Solving for C7H16, Initial residual = 0.030052, Final residual = 1.12934e-08, No Iterations 2
DILUPBiCGStab:  Solving for O2, Initial residual = 0.030052, Final residual = 1.12934e-08, No Iterations 2
DILUPBiCGStab:  Solving for CO2, Initial residual = 0, Final residual = 0, No Iterations 0
DILUPBiCGStab:  Solving for H2O, Initial residual = 0, Final residual = 0, No Iterations 0
DILUPBiCGStab:  Solving for ha, Initial residual = 0.0267828, Final residual = 8.24816e-07, No Iterations 1
T gas min/max   752.906, 800.267
GAMG:  Solving for p, Initial residual = 0.0472289, Final residual = 0.000739781, No Iterations 1
diagonal:  Solving for rho, Initial residual = 0, Final residual = 0, No Iterations 0
time step continuity errors : sum local = 8.73199e-07, global = -6.38909e-07, cumulative = -1.55286e-05
rho max/min : 23.2438 21.658
GAMG:  Solving for p, Initial residual = 0.000815284, Final residual = 8.91219e-08, No Iterations 3
diagonal:  Solving for rho, Initial residual = 0, Final residual = 0, No Iterations 0
time step continuity errors : sum local = 8.75698e-07, global = -6.39478e-07, cumulative = -1.61681e-05
rho max/min : 23.2445 21.658
smoothSolver:  Solving for epsilon, Initial residual = 0.0238193, Final residual = 1.09201e-07, No Iterations 3
smoothSolver:  Solving for k, Initial residual = 0.0320912, Final residual = 3.32247e-07, No Iterations 3
ExecutionTime = 8.53 s  ClockTime = 9 s

Courant Number mean: 5.13918e-05 max: 0.10181
deltaT = 1.04004e-06
Time = 5.14813e-05


Solving 3-D cloud sprayCloud

Cloud: sprayCloud injector: model1
    Added 21 new parcels

Cloud: sprayCloud
    Current number of parcels       = 1028
    Current mass in system          = 1.33406e-07
    Linear momentum                 = (-4.96067e-08 -1.83551e-05 6.36453e-08)
   |Linear momentum|                = 1.83552e-05
    Linear kinetic energy           = 0.00161557
    model1:
        number of parcels added     = 1029
        mass introduced             = 1.34097e-07
    Parcel fate (number, mass)
      - escape                      = 0, 0
      - stick                       = 0, 0
    Temperature min/max             = 320.421, 540.062
    Mass transfer phase change      = 6.9129e-10
    D10, D32, Dmax (mu)             = 8.87178, 40.8994, 143.683
    Liquid penetration 95% mass (m) = 0.00349471

diagonal:  Solving for rho, Initial residual = 0, Final residual = 0, No Iterations 0
smoothSolver:  Solving for Ux, Initial residual = 0.0410267, Final residual = 8.43834e-07, No Iterations 2
smoothSolver:  Solving for Uy, Initial residual = 0.0358252, Final residual = 1.32488e-07, No Iterations 3
smoothSolver:  Solving for Uz, Initial residual = 0.0410698, Final residual = 5.89367e-07, No Iterations 2
=== begin DLB-solve === 
DILUPBiCGStab:  Solving for C7H16, Initial residual = 0.0266359, Final residual = 6.64489e-09, No Iterations 2
DILUPBiCGStab:  Solving for O2, Initial residual = 0.0266359, Final residual = 6.6449e-09, No Iterations 2
DILUPBiCGStab:  Solving for CO2, Initial residual = 0, Final residual = 0, No Iterations 0
DILUPBiCGStab:  Solving for H2O, Initial residual = 0, Final residual = 0, No Iterations 0
DILUPBiCGStab:  Solving for ha, Initial residual = 0.0255374, Final residual = 7.9243e-07, No Iterations 1
T gas min/max   751.185, 800.286
GAMG:  Solving for p, Initial residual = 0.0454556, Final residual = 0.000686161, No Iterations 1
diagonal:  Solving for rho, Initial residual = 0, Final residual = 0, No Iterations 0
time step continuity errors : sum local = 9.11685e-07, global = -6.81227e-07, cumulative = -1.68493e-05
rho max/min : 23.2566 21.6578
GAMG:  Solving for p, Initial residual = 0.000748546, Final residual = 8.67712e-08, No Iterations 3
diagonal:  Solving for rho, Initial residual = 0, Final residual = 0, No Iterations 0
time step continuity errors : sum local = 9.14042e-07, global = -6.81843e-07, cumulative = -1.75311e-05
rho max/min : 23.2572 21.6578
smoothSolver:  Solving for epsilon, Initial residual = 0.0248723, Final residual = 1.02101e-07, No Iterations 3
smoothSolver:  Solving for k, Initial residual = 0.0301631, Final residual = 2.75112e-07, No Iterations 3
ExecutionTime = 8.84 s  ClockTime = 9 s

Courant Number mean: 5.45035e-05 max: 0.102493
deltaT = 1.01446e-06
Time = 5.24957e-05


Solving 3-D cloud sprayCloud

Cloud: sprayCloud injector: model1
    Added 20 new parcels

Cloud: sprayCloud
    Current number of parcels       = 1048
    Current mass in system          = 1.38204e-07
    Linear momentum                 = (-7.18154e-08 -1.90849e-05 3.39839e-08)
   |Linear momentum|                = 1.90851e-05
    Linear kinetic energy           = 0.0016906
    model1:
        number of parcels added     = 1049
        mass introduced             = 1.3896e-07
    Parcel fate (number, mass)
      - escape                      = 0, 0
      - stick                       = 0, 0
    Temperature min/max             = 320.413, 540.105
    Mass transfer phase change      = 7.56091e-10
    D10, D32, Dmax (mu)             = 8.51361, 39.7352, 138.683
    Liquid penetration 95% mass (m) = 0.00358816

diagonal:  Solving for rho, Initial residual = 0, Final residual = 0, No Iterations 0
smoothSolver:  Solving for Ux, Initial residual = 0.0394256, Final residual = 7.75309e-07, No Iterations 2
smoothSolver:  Solving for Uy, Initial residual = 0.0342888, Final residual = 1.15769e-07, No Iterations 3
smoothSolver:  Solving for Uz, Initial residual = 0.0394142, Final residual = 5.74632e-07, No Iterations 2
=== begin DLB-solve === 
DILUPBiCGStab:  Solving for C7H16, Initial residual = 0.0239902, Final residual = 9.17618e-07, No Iterations 1
DILUPBiCGStab:  Solving for O2, Initial residual = 0.0239903, Final residual = 9.17619e-07, No Iterations 1
DILUPBiCGStab:  Solving for CO2, Initial residual = 0, Final residual = 0, No Iterations 0
DILUPBiCGStab:  Solving for H2O, Initial residual = 0, Final residual = 0, No Iterations 0
DILUPBiCGStab:  Solving for ha, Initial residual = 0.0241629, Final residual = 7.31533e-07, No Iterations 1
T gas min/max   747.453, 800.298
GAMG:  Solving for p, Initial residual = 0.0428229, Final residual = 0.000589583, No Iterations 1
diagonal:  Solving for rho, Initial residual = 0, Final residual = 0, No Iterations 0
time step continuity errors : sum local = 9.40691e-07, global = -7.15769e-07, cumulative = -1.82469e-05
rho max/min : 23.3184 21.6573
GAMG:  Solving for p, Initial residual = 0.000636008, Final residual = 6.56723e-08, No Iterations 3
diagonal:  Solving for rho, Initial residual = 0, Final residual = 0, No Iterations 0
time step continuity errors : sum local = 9.42392e-07, global = -7.16213e-07, cumulative = -1.89631e-05
rho max/min : 23.3184 21.6572
smoothSolver:  Solving for epsilon, Initial residual = 0.0258302, Final residual = 9.24678e-08, No Iterations 3
smoothSolver:  Solving for k, Initial residual = 0.028504, Final residual = 2.25222e-07, No Iterations 3
ExecutionTime = 9.15 s  ClockTime = 10 s

Courant Number mean: 5.72105e-05 max: 0.103056
deltaT = 9.83909e-07
Time = 5.34796e-05


Solving 3-D cloud sprayCloud

Cloud: sprayCloud injector: model1
    Added 20 new parcels

Cloud: sprayCloud
    Current number of parcels       = 1067
    Current mass in system          = 1.42905e-07
    Linear momentum                 = (-3.64845e-08 -1.97978e-05 4.87312e-08)
   |Linear momentum|                = 1.97979e-05
    Linear kinetic energy           = 0.00176368
    model1:
        number of parcels added     = 1069
        mass introduced             = 1.43731e-07
    Parcel fate (number, mass)
      - escape                      = 0, 0
      - stick                       = 0, 0
    Temperature min/max             = 320.394, 539.854
    Mass transfer phase change      = 8.25262e-10
    D10, D32, Dmax (mu)             = 9.12883, 38.6567, 142.229
    Liquid penetration 95% mass (m) = 0.00367775

diagonal:  Solving for rho, Initial residual = 0, Final residual = 0, No Iterations 0
smoothSolver:  Solving for Ux, Initial residual = 0.0377705, Final residual = 4.77305e-07, No Iterations 2
smoothSolver:  Solving for Uy, Initial residual = 0.0325809, Final residual = 9.29248e-08, No Iterations 3
smoothSolver:  Solving for Uz, Initial residual = 0.0376833, Final residual = 4.98101e-07, No Iterations 2
=== begin DLB-solve === 
DILUPBiCGStab:  Solving for C7H16, Initial residual = 0.023707, Final residual = 9.29705e-07, No Iterations 1
DILUPBiCGStab:  Solving for O2, Initial residual = 0.023707, Final residual = 9.29705e-07, No Iterations 1
DILUPBiCGStab:  Solving for CO2, Initial residual = 0, Final residual = 0, No Iterations 0
DILUPBiCGStab:  Solving for H2O, Initial residual = 0, Final residual = 0, No Iterations 0
DILUPBiCGStab:  Solving for ha, Initial residual = 0.0229333, Final residual = 6.27667e-07, No Iterations 1
T gas min/max   744.032, 800.302
GAMG:  Solving for p, Initial residual = 0.0397685, Final residual = 0.000476002, No Iterations 1
diagonal:  Solving for rho, Initial residual = 0, Final residual = 0, No Iterations 0
time step continuity errors : sum local = 9.71329e-07, global = -7.42805e-07, cumulative = -1.97059e-05
rho max/min : 23.4288 21.6567
GAMG:  Solving for p, Initial residual = 0.000478777, Final residual = 7.2571e-07, No Iterations 2
diagonal:  Solving for rho, Initial residual = 0, Final residual = 0, No Iterations 0
time step continuity errors : sum local = 9.72796e-07, global = -7.43025e-07, cumulative = -2.0449e-05
rho max/min : 23.4289 21.6567
smoothSolver:  Solving for epsilon, Initial residual = 0.0264128, Final residual = 7.9888e-08, No Iterations 3
smoothSolver:  Solving for k, Initial residual = 0.0268335, Final residual = 1.7854e-07, No Iterations 3
ExecutionTime = 9.47 s  ClockTime = 10 s

Courant Number mean: 5.94583e-05 max: 0.102446
deltaT = 9.5996e-07
Time = 5.44396e-05


Solving 3-D cloud sprayCloud

Cloud: sprayCloud injector: model1
    Added 19 new parcels

Cloud: sprayCloud
    Current number of parcels       = 1085
    Current mass in system          = 1.47535e-07
    Linear momentum                 = (1.22379e-08 -2.04928e-05 1.99504e-08)
   |Linear momentum|                = 2.04928e-05
    Linear kinetic energy           = 0.00183539
    model1:
        number of parcels added     = 1088
        mass introduced             = 1.48436e-07
    Parcel fate (number, mass)
      - escape                      = 0, 0
      - stick                       = 0, 0
    Temperature min/max             = 320.409, 537.017
    Mass transfer phase change      = 9.00923e-10
    D10, D32, Dmax (mu)             = 9.79252, 37.6233, 138.599
    Liquid penetration 95% mass (m) = 0.00375879

diagonal:  Solving for rho, Initial residual = 0, Final residual = 0, No Iterations 0
smoothSolver:  Solving for Ux, Initial residual = 0.0363916, Final residual = 4.11229e-07, No Iterations 2
smoothSolver:  Solving for Uy, Initial residual = 0.0312494, Final residual = 7.54729e-08, No Iterations 3
smoothSolver:  Solving for Uz, Initial residual = 0.0360657, Final residual = 4.2399e-07, No Iterations 2
=== begin DLB-solve === 
DILUPBiCGStab:  Solving for C7H16, Initial residual = 0.024299, Final residual = 9.48387e-07, No Iterations 1
DILUPBiCGStab:  Solving for O2, Initial residual = 0.0242991, Final residual = 9.48387e-07, No Iterations 1
DILUPBiCGStab:  Solving for CO2, Initial residual = 0, Final residual = 0, No Iterations 0
DILUPBiCGStab:  Solving for H2O, Initial residual = 0, Final residual = 0, No Iterations 0
DILUPBiCGStab:  Solving for ha, Initial residual = 0.0220721, Final residual = 5.2544e-07, No Iterations 1
T gas min/max   740.622, 800.293
GAMG:  Solving for p, Initial residual = 0.0385451, Final residual = 0.000453505, No Iterations 1
diagonal:  Solving for rho, Initial residual = 0, Final residual = 0, No Iterations 0
time step continuity errors : sum local = 1.00607e-06, global = -7.68892e-07, cumulative = -2.12178e-05
rho max/min : 23.5488 21.656
GAMG:  Solving for p, Initial residual = 0.000455393, Final residual = 8.03305e-07, No Iterations 2
diagonal:  Solving for rho, Initial residual = 0, Final residual = 0, No Iterations 0
time step continuity errors : sum local = 1.00739e-06, global = -7.69036e-07, cumulative = -2.19869e-05
rho max/min : 23.5489 21.656
smoothSolver:  Solving for epsilon, Initial residual = 0.0267835, Final residual = 7.00166e-08, No Iterations 3
smoothSolver:  Solving for k, Initial residual = 0.0253673, Final residual = 1.4549e-07, No Iterations 3
ExecutionTime = 9.76 s  ClockTime = 10 s

Courant Number mean: 6.1945e-05 max: 0.101631
deltaT = 9.43673e-07
Time = 5.53833e-05


Solving 3-D cloud sprayCloud

Cloud: sprayCloud injector: model1
    Added 19 new parcels

Cloud: sprayCloud
    Current number of parcels       = 1104
    Current mass in system          = 1.52124e-07
    Linear momentum                 = (3.78097e-08 -2.11801e-05 4.98408e-08)
   |Linear momentum|                = 2.11802e-05
    Linear kinetic energy           = 0.00190731
    model1:
        number of parcels added     = 1107
        mass introduced             = 1.5311e-07
    Parcel fate (number, mass)
      - escape                      = 0, 0
      - stick                       = 0, 0
    Temperature min/max             = 320.425, 538.512
    Mass transfer phase change      = 9.8564e-10
    D10, D32, Dmax (mu)             = 9.52529, 36.6137, 140.202
    Liquid penetration 95% mass (m) = 0.00383896

[...]
Max number of processor patches = 1 (0% above average 1)
Max number of faces between processors = 1 (0% above average 1)

Time = 0

Processor 0: field transfer
Processor 1: field transfer

End

/*---------------------------------------------------------------------------*\
  =========                 |
  \\      /  F ield         | OpenFOAM: The Open Source CFD Toolbox
   \\    /   O peration     | Website:  https://openfoam.org
    \\  /    A nd           | Version:  7
     \\/     M anipulation  |
\*---------------------------------------------------------------------------*/
Build  : 7-3bcbaf946ae9
Exec   : dfLowMachFoam -parallel
Date   : Sep 14 2022
Time   : 14:55:53
Host   : "JiayangXu"
PID    : 31406
I/O    : uncollated
Case   : /home/jx278/DeepFlame/deepflame-dev/test/dfLowMachFoam/oneD_freelyPropagation/H2/cvodeSolver
nProcs : 2
Slaves : 1("JiayangXu.31407")
Pstream initialized with:
    floatTransfer      : 0
    nProcsSimpleSum    : 0
    commsType          : nonBlocking
    polling iterations : 0
sigFpe : Enabling floating point exception trapping (FOAM_SIGFPE).
fileModificationChecking : Monitoring run-time modified files using timeStampMaster (fileModificationSkew 10)
allowSystemOperations : Allowing user-supplied system call operations

// * * * * * * * * * * * * * * * * * * * * * * * * * * * * * * * * * * * * * //
Create time

Create mesh for time = 0


PIMPLE: No convergence criteria found


PIMPLE: Operating solver in transient mode with 1 outer corrector
PIMPLE: Operating solver in PISO mode


Reading thermophysical properties

--- I am here in Cantera-construct ---
relTol_ === 1e-06
absTol_ === 1e-10
At initial time, min/max(T) = 600, 2536.76
Reading field U

Reading/calculating face flux field phi

Creating turbulence model

Selecting turbulence model type laminar
Selecting laminar stress model Stokes
Creating field dpdt

Creating field kinetic energy K

Courant Number mean: 0.534338 max: 0.718134

Starting time loop

Courant Number mean: 0.534338 max: 0.718134
Time = 1e-06

diagonal:  Solving for rho, Initial residual = 0, Final residual = 0, No Iterations 0
DILUPBiCGStab:  Solving for Ux, Initial residual = 5.93545e-06, Final residual = 3.11163e-14, No Iterations 1
=== begin DLB-solve === 
=== end DLB-solve === 
DILUPBiCGStab:  Solving for H, Initial residual = 0.000338024, Final residual = 4.07958e-11, No Iterations 1
DILUPBiCGStab:  Solving for O, Initial residual = 5.28124e-05, Final residual = 1.00305e-11, No Iterations 1
DILUPBiCGStab:  Solving for H2O, Initial residual = 7.71944e-07, Final residual = 4.84877e-13, No Iterations 1
DILUPBiCGStab:  Solving for OH, Initial residual = 1.45667e-05, Final residual = 4.01929e-12, No Iterations 1
DILUPBiCGStab:  Solving for O2, Initial residual = 8.864e-07, Final residual = 1.71621e-13, No Iterations 1
DILUPBiCGStab:  Solving for H2, Initial residual = 4.25137e-06, Final residual = 8.10007e-13, No Iterations 1
DILUPBiCGStab:  Solving for ha, Initial residual = 0.00417922, Final residual = 9.75852e-10, No Iterations 1
min/max(T) = 600, 2536.76
DICPCG:  Solving for p, Initial residual = 1, Final residual = 4.02271e-07, No Iterations 1
diagonal:  Solving for rho, Initial residual = 0, Final residual = 0, No Iterations 0
time step continuity errors : sum local = 9.28048e-13, global = 8.07396e-13, cumulative = 8.07396e-13
DICPCG:  Solving for p, Initial residual = 0.214902, Final residual = 2.6137e-07, No Iterations 1
diagonal:  Solving for rho, Initial residual = 0, Final residual = 0, No Iterations 0
time step continuity errors : sum local = 1.2002e-12, global = 1.07953e-12, cumulative = 1.88693e-12
MonitorTime_chem = 0.484161 s

MonitorTime_Y = 0.01148 s

MonitorTime_flow = 0.016026 s

ExecutionTime = 0.73 s  ClockTime = 1 s

Courant Number mean: 0.534334 max: 0.718134
Time = 2e-06

diagonal:  Solving for rho, Initial residual = 0, Final residual = 0, No Iterations 0
DILUPBiCGStab:  Solving for Ux, Initial residual = 2.14696e-05, Final residual = 3.07022e-12, No Iterations 1
=== begin DLB-solve === 
=== end DLB-solve === 
DILUPBiCGStab:  Solving for H, Initial residual = 0.00020948, Final residual = 3.75371e-11, No Iterations 1
DILUPBiCGStab:  Solving for O, Initial residual = 7.79492e-05, Final residual = 8.07111e-12, No Iterations 1
DILUPBiCGStab:  Solving for H2O, Initial residual = 7.32829e-07, Final residual = 3.82657e-13, No Iterations 1
DILUPBiCGStab:  Solving for OH, Initial residual = 4.79907e-06, Final residual = 2.93372e-12, No Iterations 1
DILUPBiCGStab:  Solving for O2, Initial residual = 9.18884e-07, Final residual = 1.26166e-13, No Iterations 1
DILUPBiCGStab:  Solving for H2, Initial residual = 3.13771e-06, Final residual = 7.04724e-13, No Iterations 1
DILUPBiCGStab:  Solving for ha, Initial residual = 0.00336295, Final residual = 9.89504e-10, No Iterations 1
min/max(T) = 600, 2536.76
DICPCG:  Solving for p, Initial residual = 0.640293, Final residual = 6.56374e-07, No Iterations 1
diagonal:  Solving for rho, Initial residual = 0, Final residual = 0, No Iterations 0
time step continuity errors : sum local = 2.88617e-12, global = 2.78147e-12, cumulative = 4.66839e-12
DICPCG:  Solving for p, Initial residual = 0.258657, Final residual = 5.60958e-07, No Iterations 1
diagonal:  Solving for rho, Initial residual = 0, Final residual = 0, No Iterations 0
time step continuity errors : sum local = 2.78022e-12, global = 2.67485e-12, cumulative = 7.34324e-12
MonitorTime_chem = 0.960279 s

MonitorTime_Y = 0.023263 s

MonitorTime_flow = 0.025994 s

ExecutionTime = 1.25 s  ClockTime = 1 s

Courant Number mean: 0.534332 max: 0.718134
Time = 3e-06

diagonal:  Solving for rho, Initial residual = 0, Final residual = 0, No Iterations 0
DILUPBiCGStab:  Solving for Ux, Initial residual = 2.18763e-05, Final residual = 3.45367e-12, No Iterations 1
=== begin DLB-solve === 
=== end DLB-solve === 
DILUPBiCGStab:  Solving for H, Initial residual = 0.000156041, Final residual = 3.54582e-11, No Iterations 1
DILUPBiCGStab:  Solving for O, Initial residual = 6.47824e-05, Final residual = 7.14373e-12, No Iterations 1
DILUPBiCGStab:  Solving for H2O, Initial residual = 8.10352e-07, Final residual = 3.32528e-13, No Iterations 1
DILUPBiCGStab:  Solving for OH, Initial residual = 3.53187e-06, Final residual = 2.34543e-12, No Iterations 1
DILUPBiCGStab:  Solving for O2, Initial residual = 9.18434e-07, Final residual = 1.0965e-13, No Iterations 1
DILUPBiCGStab:  Solving for H2, Initial residual = 2.53026e-06, Final residual = 6.37092e-13, No Iterations 1
DILUPBiCGStab:  Solving for ha, Initial residual = 0.00285985, Final residual = 8.42765e-10, No Iterations 1
min/max(T) = 600, 2536.76
DICPCG:  Solving for p, Initial residual = 0.310595, Final residual = 1.06065e-06, No Iterations 1
diagonal:  Solving for rho, Initial residual = 0, Final residual = 0, No Iterations 0
time step continuity errors : sum local = 4.32909e-12, global = 4.22335e-12, cumulative = 1.15666e-11
DICPCG:  Solving for p, Initial residual = 0.0877963, Final residual = 8.61044e-07, No Iterations 1
diagonal:  Solving for rho, Initial residual = 0, Final residual = 0, No Iterations 0
time step continuity errors : sum local = 4.21053e-12, global = 4.10657e-12, cumulative = 1.56732e-11
MonitorTime_chem = 1.47284 s

MonitorTime_Y = 0.03434 s

MonitorTime_flow = 0.036368 s

ExecutionTime = 1.81 s  ClockTime = 2 s

Courant Number mean: 0.534332 max: 0.718134
Time = 4e-06

diagonal:  Solving for rho, Initial residual = 0, Final residual = 0, No Iterations 0
DILUPBiCGStab:  Solving for Ux, Initial residual = 2.26191e-05, Final residual = 8.83592e-12, No Iterations 1
=== begin DLB-solve === 
=== end DLB-solve === 
DILUPBiCGStab:  Solving for H, Initial residual = 0.000126844, Final residual = 3.26726e-11, No Iterations 1
DILUPBiCGStab:  Solving for O, Initial residual = 5.54387e-05, Final residual = 5.72373e-12, No Iterations 1
DILUPBiCGStab:  Solving for H2O, Initial residual = 8.69468e-07, Final residual = 2.5774e-13, No Iterations 1
DILUPBiCGStab:  Solving for OH, Initial residual = 3.16977e-06, Final residual = 1.67341e-12, No Iterations 1
DILUPBiCGStab:  Solving for O2, Initial residual = 9.69426e-07, Final residual = 8.04632e-14, No Iterations 1
DILUPBiCGStab:  Solving for H2, Initial residual = 2.1752e-06, Final residual = 5.53529e-13, No Iterations 1
DILUPBiCGStab:  Solving for ha, Initial residual = 0.00257782, Final residual = 8.81798e-10, No Iterations 1
min/max(T) = 600, 2536.76
DICPCG:  Solving for p, Initial residual = 0.152789, Final residual = 1.05771e-06, No Iterations 1
diagonal:  Solving for rho, Initial residual = 0, Final residual = 0, No Iterations 0
time step continuity errors : sum local = 5.3242e-12, global = 5.22039e-12, cumulative = 2.08935e-11
DICPCG:  Solving for p, Initial residual = 0.0249385, Final residual = 8.2126e-07, No Iterations 2
diagonal:  Solving for rho, Initial residual = 0, Final residual = 0, No Iterations 0
time step continuity errors : sum local = 5.0568e-12, global = 4.95109e-12, cumulative = 2.58446e-11
MonitorTime_chem = 1.96883 s

MonitorTime_Y = 0.050708 s

MonitorTime_flow = 0.047259 s

ExecutionTime = 2.36 s  ClockTime = 3 s

Courant Number mean: 0.534333 max: 0.718134
Time = 5e-06

diagonal:  Solving for rho, Initial residual = 0, Final residual = 0, No Iterations 0
DILUPBiCGStab:  Solving for Ux, Initial residual = 2.33524e-05, Final residual = 1.39337e-12, No Iterations 1
=== begin DLB-solve === 
=== end DLB-solve === 
DILUPBiCGStab:  Solving for H, Initial residual = 0.000105368, Final residual = 3.09951e-11, No Iterations 1
DILUPBiCGStab:  Solving for O, Initial residual = 4.91872e-05, Final residual = 5.16347e-12, No Iterations 1
DILUPBiCGStab:  Solving for H2O, Initial residual = 9.03139e-07, Final residual = 2.28708e-13, No Iterations 1
DILUPBiCGStab:  Solving for OH, Initial residual = 3.02019e-06, Final residual = 1.85305e-12, No Iterations 1
DILUPBiCGStab:  Solving for O2, Initial residual = 1.00138e-06, Final residual = 8.98315e-14, No Iterations 1
DILUPBiCGStab:  Solving for H2, Initial residual = 1.87938e-06, Final residual = 5.00484e-13, No Iterations 1
DILUPBiCGStab:  Solving for ha, Initial residual = 0.00236816, Final residual = 7.20208e-10, No Iterations 1
min/max(T) = 600, 2536.76
DICPCG:  Solving for p, Initial residual = 0.0898457, Final residual = 9.20778e-07, No Iterations 1
diagonal:  Solving for rho, Initial residual = 0, Final residual = 0, No Iterations 0
time step continuity errors : sum local = 5.97672e-12, global = 5.873e-12, cumulative = 3.17176e-11
DICPCG:  Solving for p, Initial residual = 0.00860817, Final residual = 7.68148e-07, No Iterations 1
diagonal:  Solving for rho, Initial residual = 0, Final residual = 0, No Iterations 0
time step continuity errors : sum local = 5.92186e-12, global = 5.81736e-12, cumulative = 3.7535e-11
MonitorTime_chem = 2.48608 s

MonitorTime_Y = 0.062985 s

MonitorTime_flow = 0.057169 s

ExecutionTime = 2.92 s  ClockTime = 3 s

Courant Number mean: 0.534335 max: 0.718134
Time = 6e-06

diagonal:  Solving for rho, Initial residual = 0, Final residual = 0, No Iterations 0
DILUPBiCGStab:  Solving for Ux, Initial residual = 2.42024e-05, Final residual = 1.06427e-11, No Iterations 1
=== begin DLB-solve === 
=== end DLB-solve === 
DILUPBiCGStab:  Solving for H, Initial residual = 9.03294e-05, Final residual = 2.85228e-11, No Iterations 1
DILUPBiCGStab:  Solving for O, Initial residual = 4.4837e-05, Final residual = 4.0752e-12, No Iterations 1
DILUPBiCGStab:  Solving for H2O, Initial residual = 9.15548e-07, Final residual = 2.09589e-13, No Iterations 1
DILUPBiCGStab:  Solving for OH, Initial residual = 2.92902e-06, Final residual = 1.98648e-12, No Iterations 1
DILUPBiCGStab:  Solving for O2, Initial residual = 1.00893e-06, Final residual = 9.49525e-14, No Iterations 1
DILUPBiCGStab:  Solving for H2, Initial residual = 1.68115e-06, Final residual = 4.32402e-13, No Iterations 1
DILUPBiCGStab:  Solving for ha, Initial residual = 0.00221203, Final residual = 7.36733e-10, No Iterations 1
min/max(T) = 600, 2536.76
DICPCG:  Solving for p, Initial residual = 0.0668831, Final residual = 1.14445e-06, No Iterations 1
diagonal:  Solving for rho, Initial residual = 0, Final residual = 0, No Iterations 0
time step continuity errors : sum local = 9.23705e-12, global = 6.85181e-12, cumulative = 4.43868e-11
DICPCG:  Solving for p, Initial residual = 0.0056649, Final residual = 7.01454e-07, No Iterations 2
diagonal:  Solving for rho, Initial residual = 0, Final residual = 0, No Iterations 0
time step continuity errors : sum local = 6.55435e-12, global = 6.44685e-12, cumulative = 5.08336e-11
MonitorTime_chem = 2.96988 s

MonitorTime_Y = 0.074246 s

MonitorTime_flow = 0.066836 s

ExecutionTime = 3.44 s  ClockTime = 4 s

Courant Number mean: 0.534337 max: 0.718134
Time = 7e-06

diagonal:  Solving for rho, Initial residual = 0, Final residual = 0, No Iterations 0
DILUPBiCGStab:  Solving for Ux, Initial residual = 2.48217e-05, Final residual = 2.59164e-12, No Iterations 1
=== begin DLB-solve === 
=== end DLB-solve === 
DILUPBiCGStab:  Solving for H, Initial residual = 7.94294e-05, Final residual = 2.71595e-11, No Iterations 1
DILUPBiCGStab:  Solving for O, Initial residual = 4.17661e-05, Final residual = 4.26334e-12, No Iterations 1
DILUPBiCGStab:  Solving for H2O, Initial residual = 9.0918e-07, Final residual = 2.26403e-13, No Iterations 1
DILUPBiCGStab:  Solving for OH, Initial residual = 2.88179e-06, Final residual = 2.12875e-12, No Iterations 1
DILUPBiCGStab:  Solving for O2, Initial residual = 9.97791e-07, Final residual = 1.02145e-13, No Iterations 1
DILUPBiCGStab:  Solving for H2, Initial residual = 1.54245e-06, Final residual = 3.92073e-13, No Iterations 1
DILUPBiCGStab:  Solving for ha, Initial residual = 0.0020983, Final residual = 5.89841e-10, No Iterations 1
min/max(T) = 600, 2536.76
DICPCG:  Solving for p, Initial residual = 0.0545987, Final residual = 7.16521e-07, No Iterations 1
diagonal:  Solving for rho, Initial residual = 0, Final residual = 0, No Iterations 0
time step continuity errors : sum local = 7.00999e-12, global = 6.90627e-12, cumulative = 5.77399e-11
DICPCG:  Solving for p, Initial residual = 0.00344532, Final residual = 6.32184e-07, No Iterations 1
diagonal:  Solving for rho, Initial residual = 0, Final residual = 0, No Iterations 0
time step continuity errors : sum local = 6.99465e-12, global = 6.88952e-12, cumulative = 6.46294e-11
MonitorTime_chem = 3.4405 s

MonitorTime_Y = 0.086169 s

MonitorTime_flow = 0.077122 s

ExecutionTime = 3.96 s  ClockTime = 4 s

Courant Number mean: 0.53434 max: 0.718134
Time = 8e-06

diagonal:  Solving for rho, Initial residual = 0, Final residual = 0, No Iterations 0
DILUPBiCGStab:  Solving for Ux, Initial residual = 2.53579e-05, Final residual = 8.82613e-12, No Iterations 1
=== begin DLB-solve === 
=== end DLB-solve === 
DILUPBiCGStab:  Solving for H, Initial residual = 7.11141e-05, Final residual = 2.49402e-11, No Iterations 1
DILUPBiCGStab:  Solving for O, Initial residual = 3.95585e-05, Final residual = 4.40021e-12, No Iterations 1
DILUPBiCGStab:  Solving for H2O, Initial residual = 8.9029e-07, Final residual = 2.36146e-13, No Iterations 1
DILUPBiCGStab:  Solving for OH, Initial residual = 2.87012e-06, Final residual = 2.25835e-12, No Iterations 1
DILUPBiCGStab:  Solving for O2, Initial residual = 9.79449e-07, Final residual = 1.06444e-13, No Iterations 1
DILUPBiCGStab:  Solving for H2, Initial residual = 1.44478e-06, Final residual = 3.36166e-13, No Iterations 1
DILUPBiCGStab:  Solving for ha, Initial residual = 0.00200303, Final residual = 6.1014e-10, No Iterations 1
min/max(T) = 600, 2536.76
DICPCG:  Solving for p, Initial residual = 0.0475943, Final residual = 6.71805e-07, No Iterations 1
diagonal:  Solving for rho, Initial residual = 0, Final residual = 0, No Iterations 0
time step continuity errors : sum local = 7.74364e-12, global = 7.64002e-12, cumulative = 7.22695e-11
DICPCG:  Solving for p, Initial residual = 0.00239396, Final residual = 5.88793e-07, No Iterations 1
diagonal:  Solving for rho, Initial residual = 0, Final residual = 0, No Iterations 0
time step continuity errors : sum local = 7.57512e-12, global = 7.47122e-12, cumulative = 7.97407e-11
MonitorTime_chem = 3.92202 s

MonitorTime_Y = 0.097716 s

MonitorTime_flow = 0.087259 s

ExecutionTime = 4.49 s  ClockTime = 5 s

Courant Number mean: 0.534344 max: 0.718134
Time = 9e-06

diagonal:  Solving for rho, Initial residual = 0, Final residual = 0, No Iterations 0
DILUPBiCGStab:  Solving for Ux, Initial residual = 2.66265e-05, Final residual = 1.8378e-11, No Iterations 1
=== begin DLB-solve === 
=== end DLB-solve === 
DILUPBiCGStab:  Solving for H, Initial residual = 6.46409e-05, Final residual = 2.38451e-11, No Iterations 1
DILUPBiCGStab:  Solving for O, Initial residual = 3.77935e-05, Final residual = 4.60729e-12, No Iterations 1
DILUPBiCGStab:  Solving for H2O, Initial residual = 8.66618e-07, Final residual = 2.49906e-13, No Iterations 1
DILUPBiCGStab:  Solving for OH, Initial residual = 2.8721e-06, Final residual = 2.38044e-12, No Iterations 1
DILUPBiCGStab:  Solving for O2, Initial residual = 9.54638e-07, Final residual = 1.12203e-13, No Iterations 1
DILUPBiCGStab:  Solving for H2, Initial residual = 1.36901e-06, Final residual = 3.06221e-13, No Iterations 1
DILUPBiCGStab:  Solving for ha, Initial residual = 0.00192941, Final residual = 4.90589e-10, No Iterations 1
min/max(T) = 600, 2536.76
DICPCG:  Solving for p, Initial residual = 0.0425242, Final residual = 8.75852e-07, No Iterations 1
diagonal:  Solving for rho, Initial residual = 0, Final residual = 0, No Iterations 0
time step continuity errors : sum local = 1.16516e-11, global = 8.04871e-12, cumulative = 8.77894e-11
DICPCG:  Solving for p, Initial residual = 0.00168723, Final residual = 5.2994e-07, No Iterations 2
diagonal:  Solving for rho, Initial residual = 0, Final residual = 0, No Iterations 0
time step continuity errors : sum local = 7.81858e-12, global = 7.70769e-12, cumulative = 9.54971e-11
MonitorTime_chem = 4.46149 s

MonitorTime_Y = 0.112321 s

MonitorTime_flow = 0.099236 s

ExecutionTime = 5.08 s  ClockTime = 5 s

Courant Number mean: 0.534348 max: 0.718134
Time = 1e-05

diagonal:  Solving for rho, Initial residual = 0, Final residual = 0, No Iterations 0
DILUPBiCGStab:  Solving for Ux, Initial residual = 2.8175e-05, Final residual = 6.7743e-12, No Iterations 1
=== begin DLB-solve === 
=== end DLB-solve === 
DILUPBiCGStab:  Solving for H, Initial residual = 5.94498e-05, Final residual = 2.18504e-11, No Iterations 1
DILUPBiCGStab:  Solving for O, Initial residual = 3.64154e-05, Final residual = 4.73136e-12, No Iterations 1
DILUPBiCGStab:  Solving for H2O, Initial residual = 8.42364e-07, Final residual = 2.58965e-13, No Iterations 1
DILUPBiCGStab:  Solving for OH, Initial residual = 2.87098e-06, Final residual = 2.50599e-12, No Iterations 1
DILUPBiCGStab:  Solving for O2, Initial residual = 9.24596e-07, Final residual = 1.15991e-13, No Iterations 1
DILUPBiCGStab:  Solving for H2, Initial residual = 1.31497e-06, Final residual = 2.72093e-13, No Iterations 1
DILUPBiCGStab:  Solving for ha, Initial residual = 0.00186357, Final residual = 5.04918e-10, No Iterations 1
min/max(T) = 600, 2536.76
DICPCG:  Solving for p, Initial residual = 0.0385825, Final residual = 5.21351e-07, No Iterations 1
diagonal:  Solving for rho, Initial residual = 0, Final residual = 0, No Iterations 0
time step continuity errors : sum local = 7.96817e-12, global = 7.86465e-12, cumulative = 1.03362e-10
DICPCG:  Solving for p, Initial residual = 0.00127842, Final residual = 4.73514e-07, No Iterations 1
diagonal:  Solving for rho, Initial residual = 0, Final residual = 0, No Iterations 0
time step continuity errors : sum local = 7.92788e-12, global = 7.82215e-12, cumulative = 1.11184e-10
MonitorTime_chem = 5.03833 s

MonitorTime_Y = 0.125581 s

MonitorTime_flow = 0.110418 s

ExecutionTime = 5.7 s  ClockTime = 6 s

End

Finalising parallel run
